
---------- Begin Simulation Statistics ----------
host_inst_rate                                 120944                       # Simulator instruction rate (inst/s)
host_mem_usage                                 336972                       # Number of bytes of host memory used
host_seconds                                   165.37                       # Real time elapsed on the host
host_tick_rate                              672449321                       # Simulator tick rate (ticks/s)
sim_freq                                 1000000000000                       # Frequency of simulated ticks
sim_insts                                    20000003                       # Number of instructions simulated
sim_seconds                                  0.111200                       # Number of seconds simulated
sim_ticks                                111200208000                       # Number of ticks simulated
system.cpu.dcache.ReadReq_accesses            5609577                       # number of ReadReq accesses(hits+misses)
system.cpu.dcache.ReadReq_avg_miss_latency 36074.250031                       # average ReadReq miss latency
system.cpu.dcache.ReadReq_avg_mshr_miss_latency 32796.383912                       # average ReadReq mshr miss latency
system.cpu.dcache.ReadReq_hits                2084299                       # number of ReadReq hits
system.cpu.dcache.ReadReq_miss_latency   127171760000                       # number of ReadReq miss cycles
system.cpu.dcache.ReadReq_miss_rate          0.628439                       # miss rate for ReadReq accesses
system.cpu.dcache.ReadReq_misses              3525278                       # number of ReadReq misses
system.cpu.dcache.ReadReq_mshr_hits              4235                       # number of ReadReq MSHR hits
system.cpu.dcache.ReadReq_mshr_miss_latency 115477478000                       # number of ReadReq MSHR miss cycles
system.cpu.dcache.ReadReq_mshr_miss_rate     0.627684                       # mshr miss rate for ReadReq accesses
system.cpu.dcache.ReadReq_mshr_misses         3521043                       # number of ReadReq MSHR misses
system.cpu.dcache.WriteReq_accesses            293301                       # number of WriteReq accesses(hits+misses)
system.cpu.dcache.WriteReq_avg_miss_latency 74095.415532                       # average WriteReq miss latency
system.cpu.dcache.WriteReq_avg_mshr_miss_latency 72318.311465                       # average WriteReq mshr miss latency
system.cpu.dcache.WriteReq_hits                285446                       # number of WriteReq hits
system.cpu.dcache.WriteReq_miss_latency     582019489                       # number of WriteReq miss cycles
system.cpu.dcache.WriteReq_miss_rate         0.026781                       # miss rate for WriteReq accesses
system.cpu.dcache.WriteReq_misses                7855                       # number of WriteReq misses
system.cpu.dcache.WriteReq_mshr_hits             2962                       # number of WriteReq MSHR hits
system.cpu.dcache.WriteReq_mshr_miss_latency    353853498                       # number of WriteReq MSHR miss cycles
system.cpu.dcache.WriteReq_mshr_miss_rate     0.016683                       # mshr miss rate for WriteReq accesses
system.cpu.dcache.WriteReq_mshr_misses           4893                       # number of WriteReq MSHR misses
system.cpu.dcache.avg_blocked_cycles::no_mshrs 15454.363636                       # average number of cycles each access was blocked
system.cpu.dcache.avg_blocked_cycles::no_targets 60949.998148                       # average number of cycles each access was blocked
system.cpu.dcache.avg_refs                   0.672583                       # Average number of references to valid blocks.
system.cpu.dcache.blocked::no_mshrs                11                       # number of cycles access was blocked
system.cpu.dcache.blocked::no_targets             540                       # number of cycles access was blocked
system.cpu.dcache.blocked_cycles::no_mshrs       169998                       # number of cycles access was blocked
system.cpu.dcache.blocked_cycles::no_targets     32912999                       # number of cycles access was blocked
system.cpu.dcache.cache_copies                      0                       # number of cache copies performed
system.cpu.dcache.demand_accesses             5902878                       # number of demand (read+write) accesses
system.cpu.dcache.demand_avg_miss_latency 36158.780179                       # average overall miss latency
system.cpu.dcache.demand_avg_mshr_miss_latency 32851.229148                       # average overall mshr miss latency
system.cpu.dcache.demand_hits                 2369745                       # number of demand (read+write) hits
system.cpu.dcache.demand_miss_latency    127753779489                       # number of demand (read+write) miss cycles
system.cpu.dcache.demand_miss_rate           0.598544                       # miss rate for demand accesses
system.cpu.dcache.demand_misses               3533133                       # number of demand (read+write) misses
system.cpu.dcache.demand_mshr_hits               7197                       # number of demand (read+write) MSHR hits
system.cpu.dcache.demand_mshr_miss_latency 115831331498                       # number of demand (read+write) MSHR miss cycles
system.cpu.dcache.demand_mshr_miss_rate      0.597325                       # mshr miss rate for demand accesses
system.cpu.dcache.demand_mshr_misses          3525936                       # number of demand (read+write) MSHR misses
system.cpu.dcache.fast_writes                       0                       # number of fast writes performed
system.cpu.dcache.mshr_cap_events                   0                       # number of times MSHR cap was activated
system.cpu.dcache.no_allocate_misses                0                       # Number of misses that were no-allocate
system.cpu.dcache.occ_%::0                   0.636395                       # Average percentage of cache occupancy
system.cpu.dcache.occ_blocks::0            651.668923                       # Average occupied blocks per context
system.cpu.dcache.overall_accesses            5902878                       # number of overall (read+write) accesses
system.cpu.dcache.overall_avg_miss_latency 36158.780179                       # average overall miss latency
system.cpu.dcache.overall_avg_mshr_miss_latency 32851.229148                       # average overall mshr miss latency
system.cpu.dcache.overall_avg_mshr_uncacheable_latency     no_value                       # average overall mshr uncacheable latency
system.cpu.dcache.overall_hits                2369745                       # number of overall hits
system.cpu.dcache.overall_miss_latency   127753779489                       # number of overall miss cycles
system.cpu.dcache.overall_miss_rate          0.598544                       # miss rate for overall accesses
system.cpu.dcache.overall_misses              3533133                       # number of overall misses
system.cpu.dcache.overall_mshr_hits              7197                       # number of overall MSHR hits
system.cpu.dcache.overall_mshr_miss_latency 115831331498                       # number of overall MSHR miss cycles
system.cpu.dcache.overall_mshr_miss_rate     0.597325                       # mshr miss rate for overall accesses
system.cpu.dcache.overall_mshr_misses         3525936                       # number of overall MSHR misses
system.cpu.dcache.overall_mshr_uncacheable_latency            0                       # number of overall MSHR uncacheable cycles
system.cpu.dcache.overall_mshr_uncacheable_misses            0                       # number of overall MSHR uncacheable misses
system.cpu.dcache.prefetch_accuracy          no_value                       # ratio of good prefetches to total prefetches
system.cpu.dcache.prefetch_hits                     0                       # number of prefetched blocks that were accessed
system.cpu.dcache.replacements                3524240                       # number of replacements
system.cpu.dcache.sampled_refs                3525090                       # Sample count of references to valid blocks.
system.cpu.dcache.soft_prefetch_mshr_full            0                       # number of mshr full events for SW prefetching instrutions
system.cpu.dcache.tagsinuse                651.668923                       # Cycle average of tags in use
system.cpu.dcache.total_refs                  2370917                       # Total number of references to valid blocks.
system.cpu.dcache.warmup_cycle                      0                       # Cycle when the warmup percentage was hit.
system.cpu.dcache.writebacks                     4506                       # number of writebacks
system.cpu.dtb.data_accesses                        0                       # DTB accesses
system.cpu.dtb.data_acv                             0                       # DTB access violations
system.cpu.dtb.data_hits                            0                       # DTB hits
system.cpu.dtb.data_misses                          0                       # DTB misses
system.cpu.dtb.fetch_accesses                       0                       # ITB accesses
system.cpu.dtb.fetch_acv                            0                       # ITB acv
system.cpu.dtb.fetch_hits                           0                       # ITB hits
system.cpu.dtb.fetch_misses                         0                       # ITB misses
system.cpu.dtb.read_accesses                        0                       # DTB read accesses
system.cpu.dtb.read_acv                             0                       # DTB read access violations
system.cpu.dtb.read_hits                            0                       # DTB read hits
system.cpu.dtb.read_misses                          0                       # DTB read misses
system.cpu.dtb.write_accesses                       0                       # DTB write accesses
system.cpu.dtb.write_acv                            0                       # DTB write access violations
system.cpu.dtb.write_hits                           0                       # DTB write hits
system.cpu.dtb.write_misses                         0                       # DTB write misses
system.cpu.icache.ReadReq_accesses           13522346                       # number of ReadReq accesses(hits+misses)
system.cpu.icache.ReadReq_avg_miss_latency 36718.676762                       # average ReadReq miss latency
system.cpu.icache.ReadReq_avg_mshr_miss_latency 32840.143300                       # average ReadReq mshr miss latency
system.cpu.icache.ReadReq_hits               13516799                       # number of ReadReq hits
system.cpu.icache.ReadReq_miss_latency      203678500                       # number of ReadReq miss cycles
system.cpu.icache.ReadReq_miss_rate          0.000410                       # miss rate for ReadReq accesses
system.cpu.icache.ReadReq_misses                 5547                       # number of ReadReq misses
system.cpu.icache.ReadReq_mshr_hits               382                       # number of ReadReq MSHR hits
system.cpu.icache.ReadReq_mshr_miss_latency    169586500                       # number of ReadReq MSHR miss cycles
system.cpu.icache.ReadReq_mshr_miss_rate     0.000382                       # mshr miss rate for ReadReq accesses
system.cpu.icache.ReadReq_mshr_misses            5164                       # number of ReadReq MSHR misses
system.cpu.icache.avg_blocked_cycles::no_mshrs     no_value                       # average number of cycles each access was blocked
system.cpu.icache.avg_blocked_cycles::no_targets        39000                       # average number of cycles each access was blocked
system.cpu.icache.avg_refs                2616.998838                       # Average number of references to valid blocks.
system.cpu.icache.blocked::no_mshrs                 0                       # number of cycles access was blocked
system.cpu.icache.blocked::no_targets               1                       # number of cycles access was blocked
system.cpu.icache.blocked_cycles::no_mshrs            0                       # number of cycles access was blocked
system.cpu.icache.blocked_cycles::no_targets        39000                       # number of cycles access was blocked
system.cpu.icache.cache_copies                      0                       # number of cache copies performed
system.cpu.icache.demand_accesses            13522346                       # number of demand (read+write) accesses
system.cpu.icache.demand_avg_miss_latency 36718.676762                       # average overall miss latency
system.cpu.icache.demand_avg_mshr_miss_latency 32840.143300                       # average overall mshr miss latency
system.cpu.icache.demand_hits                13516799                       # number of demand (read+write) hits
system.cpu.icache.demand_miss_latency       203678500                       # number of demand (read+write) miss cycles
system.cpu.icache.demand_miss_rate           0.000410                       # miss rate for demand accesses
system.cpu.icache.demand_misses                  5547                       # number of demand (read+write) misses
system.cpu.icache.demand_mshr_hits                382                       # number of demand (read+write) MSHR hits
system.cpu.icache.demand_mshr_miss_latency    169586500                       # number of demand (read+write) MSHR miss cycles
system.cpu.icache.demand_mshr_miss_rate      0.000382                       # mshr miss rate for demand accesses
system.cpu.icache.demand_mshr_misses             5164                       # number of demand (read+write) MSHR misses
system.cpu.icache.fast_writes                       0                       # number of fast writes performed
system.cpu.icache.mshr_cap_events                   0                       # number of times MSHR cap was activated
system.cpu.icache.no_allocate_misses                0                       # Number of misses that were no-allocate
system.cpu.icache.occ_%::0                   0.371155                       # Average percentage of cache occupancy
system.cpu.icache.occ_blocks::0            190.031152                       # Average occupied blocks per context
system.cpu.icache.overall_accesses           13522346                       # number of overall (read+write) accesses
system.cpu.icache.overall_avg_miss_latency 36718.676762                       # average overall miss latency
system.cpu.icache.overall_avg_mshr_miss_latency 32840.143300                       # average overall mshr miss latency
system.cpu.icache.overall_avg_mshr_uncacheable_latency     no_value                       # average overall mshr uncacheable latency
system.cpu.icache.overall_hits               13516799                       # number of overall hits
system.cpu.icache.overall_miss_latency      203678500                       # number of overall miss cycles
system.cpu.icache.overall_miss_rate          0.000410                       # miss rate for overall accesses
system.cpu.icache.overall_misses                 5547                       # number of overall misses
system.cpu.icache.overall_mshr_hits               382                       # number of overall MSHR hits
system.cpu.icache.overall_mshr_miss_latency    169586500                       # number of overall MSHR miss cycles
system.cpu.icache.overall_mshr_miss_rate     0.000382                       # mshr miss rate for overall accesses
system.cpu.icache.overall_mshr_misses            5164                       # number of overall MSHR misses
system.cpu.icache.overall_mshr_uncacheable_latency            0                       # number of overall MSHR uncacheable cycles
system.cpu.icache.overall_mshr_uncacheable_misses            0                       # number of overall MSHR uncacheable misses
system.cpu.icache.prefetch_accuracy          no_value                       # ratio of good prefetches to total prefetches
system.cpu.icache.prefetch_hits                     0                       # number of prefetched blocks that were accessed
system.cpu.icache.replacements                   4957                       # number of replacements
system.cpu.icache.sampled_refs                   5165                       # Sample count of references to valid blocks.
system.cpu.icache.soft_prefetch_mshr_full            0                       # number of mshr full events for SW prefetching instrutions
system.cpu.icache.tagsinuse                190.031152                       # Cycle average of tags in use
system.cpu.icache.total_refs                 13516799                       # Total number of references to valid blocks.
system.cpu.icache.warmup_cycle                      0                       # Cycle when the warmup percentage was hit.
system.cpu.icache.writebacks                        0                       # number of writebacks
system.cpu.idle_fraction                            0                       # Percentage of idle cycles
system.cpu.itb.data_accesses                        0                       # DTB accesses
system.cpu.itb.data_acv                             0                       # DTB access violations
system.cpu.itb.data_hits                            0                       # DTB hits
system.cpu.itb.data_misses                          0                       # DTB misses
system.cpu.itb.fetch_accesses                       2                       # ITB accesses
system.cpu.itb.fetch_acv                            0                       # ITB acv
system.cpu.itb.fetch_hits                           2                       # ITB hits
system.cpu.itb.fetch_misses                         0                       # ITB misses
system.cpu.itb.read_accesses                        0                       # DTB read accesses
system.cpu.itb.read_acv                             0                       # DTB read access violations
system.cpu.itb.read_hits                            0                       # DTB read hits
system.cpu.itb.read_misses                          0                       # DTB read misses
system.cpu.itb.write_accesses                       0                       # DTB write accesses
system.cpu.itb.write_acv                            0                       # DTB write access violations
system.cpu.itb.write_hits                           0                       # DTB write hits
system.cpu.itb.write_misses                         0                       # DTB write misses
system.cpu.not_idle_fraction                        1                       # Percentage of non-idle cycles
system.cpu.numCycles                                2                       # number of cpu cycles simulated
system.cpu.num_insts                                2                       # Number of instructions executed
system.cpu.num_refs                                 0                       # Number of memory references
system.cpu.workload.PROG:num_syscalls               3                       # Number of system calls
system.l2.HardPFReq_avg_mshr_miss_latency 73573.499081                       # average HardPFReq mshr miss latency
system.l2.HardPFReq_mshr_miss_latency    196404087930                       # number of HardPFReq MSHR miss cycles
system.l2.HardPFReq_mshr_miss_rate                inf                       # mshr miss rate for HardPFReq accesses
system.l2.HardPFReq_mshr_misses               2669495                       # number of HardPFReq MSHR misses
system.l2.ReadExReq_accesses                     4048                       # number of ReadExReq accesses(hits+misses)
system.l2.ReadExReq_avg_miss_latency     71182.009404                       # average ReadExReq miss latency
system.l2.ReadExReq_avg_mshr_miss_latency 55692.174344                       # average ReadExReq mshr miss latency
system.l2.ReadExReq_hits                            7                       # number of ReadExReq hits
system.l2.ReadExReq_miss_latency            287646500                       # number of ReadExReq miss cycles
system.l2.ReadExReq_miss_rate                0.998271                       # miss rate for ReadExReq accesses
system.l2.ReadExReq_misses                       4041                       # number of ReadExReq misses
system.l2.ReadExReq_mshr_hits                       3                       # number of ReadExReq MSHR hits
system.l2.ReadExReq_mshr_miss_latency       224885000                       # number of ReadExReq MSHR miss cycles
system.l2.ReadExReq_mshr_miss_rate           0.997530                       # mshr miss rate for ReadExReq accesses
system.l2.ReadExReq_mshr_misses                  4038                       # number of ReadExReq MSHR misses
system.l2.ReadReq_accesses                    3526208                       # number of ReadReq accesses(hits+misses)
system.l2.ReadReq_avg_miss_latency       62592.176086                       # average ReadReq miss latency
system.l2.ReadReq_avg_mshr_miss_latency  60916.927463                       # average ReadReq mshr miss latency
system.l2.ReadReq_hits                        2285908                       # number of ReadReq hits
system.l2.ReadReq_miss_latency            77633076000                       # number of ReadReq miss cycles
system.l2.ReadReq_miss_rate                  0.351738                       # miss rate for ReadReq accesses
system.l2.ReadReq_misses                      1240300                       # number of ReadReq misses
system.l2.ReadReq_mshr_hits                    365413                       # number of ReadReq MSHR hits
system.l2.ReadReq_mshr_miss_latency       53295367000                       # number of ReadReq MSHR miss cycles
system.l2.ReadReq_mshr_miss_rate             0.248110                       # mshr miss rate for ReadReq accesses
system.l2.ReadReq_mshr_misses                  874886                       # number of ReadReq MSHR misses
system.l2.UpgradeReq_accesses                     913                       # number of UpgradeReq accesses(hits+misses)
system.l2.UpgradeReq_avg_miss_latency    62530.668127                       # average UpgradeReq miss latency
system.l2.UpgradeReq_avg_mshr_miss_latency 47000.547645                       # average UpgradeReq mshr miss latency
system.l2.UpgradeReq_miss_latency            57090500                       # number of UpgradeReq miss cycles
system.l2.UpgradeReq_miss_rate                      1                       # miss rate for UpgradeReq accesses
system.l2.UpgradeReq_misses                       913                       # number of UpgradeReq misses
system.l2.UpgradeReq_mshr_miss_latency       42911500                       # number of UpgradeReq MSHR miss cycles
system.l2.UpgradeReq_mshr_miss_rate                 1                       # mshr miss rate for UpgradeReq accesses
system.l2.UpgradeReq_mshr_misses                  913                       # number of UpgradeReq MSHR misses
system.l2.Writeback_accesses                     4506                       # number of Writeback accesses(hits+misses)
system.l2.Writeback_hits                         4506                       # number of Writeback hits
system.l2.avg_blocked_cycles::no_mshrs       no_value                       # average number of cycles each access was blocked
system.l2.avg_blocked_cycles::no_targets     no_value                       # average number of cycles each access was blocked
system.l2.avg_refs                           0.646077                       # Average number of references to valid blocks.
system.l2.blocked::no_mshrs                         0                       # number of cycles access was blocked
system.l2.blocked::no_targets                       0                       # number of cycles access was blocked
system.l2.blocked_cycles::no_mshrs                  0                       # number of cycles access was blocked
system.l2.blocked_cycles::no_targets                0                       # number of cycles access was blocked
system.l2.cache_copies                              0                       # number of cache copies performed
system.l2.demand_accesses                     3530256                       # number of demand (read+write) accesses
system.l2.demand_avg_miss_latency        62620.071588                       # average overall miss latency
system.l2.demand_avg_mshr_miss_latency   60892.923620                       # average overall mshr miss latency
system.l2.demand_hits                         2285915                       # number of demand (read+write) hits
system.l2.demand_miss_latency             77920722500                       # number of demand (read+write) miss cycles
system.l2.demand_miss_rate                   0.352479                       # miss rate for demand accesses
system.l2.demand_misses                       1244341                       # number of demand (read+write) misses
system.l2.demand_mshr_hits                     365416                       # number of demand (read+write) MSHR hits
system.l2.demand_mshr_miss_latency        53520252000                       # number of demand (read+write) MSHR miss cycles
system.l2.demand_mshr_miss_rate              0.248969                       # mshr miss rate for demand accesses
system.l2.demand_mshr_misses                   878924                       # number of demand (read+write) MSHR misses
system.l2.fast_writes                               0                       # number of fast writes performed
system.l2.mshr_cap_events                           0                       # number of times MSHR cap was activated
system.l2.no_allocate_misses                        0                       # Number of misses that were no-allocate
system.l2.occ_%::0                           0.266218                       # Average percentage of cache occupancy
system.l2.occ_%::1                           0.000449                       # Average percentage of cache occupancy
system.l2.occ_blocks::0                   4361.713244                       # Average occupied blocks per context
system.l2.occ_blocks::1                      7.351349                       # Average occupied blocks per context
system.l2.overall_accesses                    3530256                       # number of overall (read+write) accesses
system.l2.overall_avg_miss_latency       62620.071588                       # average overall miss latency
system.l2.overall_avg_mshr_miss_latency  70432.589818                       # average overall mshr miss latency
system.l2.overall_avg_mshr_uncacheable_latency     no_value                       # average overall mshr uncacheable latency
system.l2.overall_hits                        2285915                       # number of overall hits
system.l2.overall_miss_latency            77920722500                       # number of overall miss cycles
system.l2.overall_miss_rate                  0.352479                       # miss rate for overall accesses
system.l2.overall_misses                      1244341                       # number of overall misses
system.l2.overall_mshr_hits                    365416                       # number of overall MSHR hits
system.l2.overall_mshr_miss_latency      249924339930                       # number of overall MSHR miss cycles
system.l2.overall_mshr_miss_rate             1.005145                       # mshr miss rate for overall accesses
system.l2.overall_mshr_misses                 3548419                       # number of overall MSHR misses
system.l2.overall_mshr_uncacheable_latency            0                       # number of overall MSHR uncacheable cycles
system.l2.overall_mshr_uncacheable_misses            0                       # number of overall MSHR uncacheable misses
system.l2.prefetch_accuracy                  0.856449                       # ratio of good prefetches to total prefetches
system.l2.prefetch_hits                       2286285                       # number of prefetched blocks that were accessed
system.l2.prefetcher.num_hwpf_already_in_prefetcher            1                       # number of hwpf that were already in the prefetch queue
system.l2.prefetcher.num_hwpf_evicted               0                       # number of hwpf removed due to no buffer left
system.l2.prefetcher.num_hwpf_identified      2751021                       # number of hwpf identified
system.l2.prefetcher.num_hwpf_issued          2674411                       # number of hwpf issued
system.l2.prefetcher.num_hwpf_removed_MSHR_hit        76608                       # number of hwpf removed because MSHR allocated
system.l2.prefetcher.num_hwpf_span_page             0                       # number of hwpf spanning a virtual page
system.l2.prefetcher.num_hwpf_squashed_from_miss            0                       # number of hwpf that got squashed due to a miss aborting calculation time
system.l2.replacements                        3540209                       # number of replacements
system.l2.sampled_refs                        3544632                       # Sample count of references to valid blocks.
system.l2.soft_prefetch_mshr_full                   0                       # number of mshr full events for SW prefetching instrutions
system.l2.tagsinuse                       4369.064593                       # Cycle average of tags in use
system.l2.total_refs                          2290104                       # Total number of references to valid blocks.
system.l2.warmup_cycle                              0                       # Cycle when the warmup percentage was hit.
system.l2.writebacks                             4475                       # number of writebacks
system.switch_cpus.dtb.data_accesses          2832022                       # DTB accesses
system.switch_cpus.dtb.data_acv                     0                       # DTB access violations
system.switch_cpus.dtb.data_hits              2558233                       # DTB hits
system.switch_cpus.dtb.data_misses             273789                       # DTB misses
system.switch_cpus.dtb.fetch_accesses               0                       # ITB accesses
system.switch_cpus.dtb.fetch_acv                    0                       # ITB acv
system.switch_cpus.dtb.fetch_hits                   0                       # ITB hits
system.switch_cpus.dtb.fetch_misses                 0                       # ITB misses
system.switch_cpus.dtb.read_accesses          2682476                       # DTB read accesses
system.switch_cpus.dtb.read_acv                     0                       # DTB read access violations
system.switch_cpus.dtb.read_hits              2409028                       # DTB read hits
system.switch_cpus.dtb.read_misses             273448                       # DTB read misses
system.switch_cpus.dtb.write_accesses          149546                       # DTB write accesses
system.switch_cpus.dtb.write_acv                    0                       # DTB write access violations
system.switch_cpus.dtb.write_hits              149205                       # DTB write hits
system.switch_cpus.dtb.write_misses               341                       # DTB write misses
system.switch_cpus.idle_fraction                    1                       # Percentage of idle cycles
system.switch_cpus.itb.data_accesses                0                       # DTB accesses
system.switch_cpus.itb.data_acv                     0                       # DTB access violations
system.switch_cpus.itb.data_hits                    0                       # DTB hits
system.switch_cpus.itb.data_misses                  0                       # DTB misses
system.switch_cpus.itb.fetch_accesses        10273803                       # ITB accesses
system.switch_cpus.itb.fetch_acv                    0                       # ITB acv
system.switch_cpus.itb.fetch_hits            10273790                       # ITB hits
system.switch_cpus.itb.fetch_misses                13                       # ITB misses
system.switch_cpus.itb.read_accesses                0                       # DTB read accesses
system.switch_cpus.itb.read_acv                     0                       # DTB read access violations
system.switch_cpus.itb.read_hits                    0                       # DTB read hits
system.switch_cpus.itb.read_misses                  0                       # DTB read misses
system.switch_cpus.itb.write_accesses               0                       # DTB write accesses
system.switch_cpus.itb.write_acv                    0                       # DTB write access violations
system.switch_cpus.itb.write_hits                   0                       # DTB write hits
system.switch_cpus.itb.write_misses                 0                       # DTB write misses
system.switch_cpus.not_idle_fraction                0                       # Percentage of non-idle cycles
system.switch_cpus.numCycles                 97455856                       # number of cpu cycles simulated
system.switch_cpus.num_insts                 10000001                       # Number of instructions executed
system.switch_cpus.num_refs                   2837031                       # Number of memory references
system.switch_cpus_1.BPredUnit.BTBCorrect            0                       # Number of correct BTB predictions (this stat may not work properly.
system.switch_cpus_1.BPredUnit.BTBHits        4671920                       # Number of BTB hits
system.switch_cpus_1.BPredUnit.BTBLookups      4858168                       # Number of BTB lookups
system.switch_cpus_1.BPredUnit.RASInCorrect           28                       # Number of incorrect RAS predictions.
system.switch_cpus_1.BPredUnit.condIncorrect        20567                       # Number of conditional branches incorrect
system.switch_cpus_1.BPredUnit.condPredicted      5241472                       # Number of conditional branches predicted
system.switch_cpus_1.BPredUnit.lookups        5386704                       # Number of BP lookups
system.switch_cpus_1.BPredUnit.usedRAS          53905                       # Number of times the RAS was used to get a target.
system.switch_cpus_1.commit.COM:branches      1639812                       # Number of branches committed
system.switch_cpus_1.commit.COM:bw_lim_events        83852                       # number cycles where commit BW limit reached
system.switch_cpus_1.commit.COM:bw_limited            0                       # number of insts not committed due to BW limits
system.switch_cpus_1.commit.COM:committed_per_cycle::samples     46735419                       # Number of insts commited each cycle
system.switch_cpus_1.commit.COM:committed_per_cycle::mean     0.220684                       # Number of insts commited each cycle
system.switch_cpus_1.commit.COM:committed_per_cycle::stdev     0.702041                       # Number of insts commited each cycle
system.switch_cpus_1.commit.COM:committed_per_cycle::underflows            0      0.00%      0.00% # Number of insts commited each cycle
system.switch_cpus_1.commit.COM:committed_per_cycle::0     40260621     86.15%     86.15% # Number of insts commited each cycle
system.switch_cpus_1.commit.COM:committed_per_cycle::1      4075039      8.72%     94.87% # Number of insts commited each cycle
system.switch_cpus_1.commit.COM:committed_per_cycle::2      1918942      4.11%     98.97% # Number of insts commited each cycle
system.switch_cpus_1.commit.COM:committed_per_cycle::3       137716      0.29%     99.27% # Number of insts commited each cycle
system.switch_cpus_1.commit.COM:committed_per_cycle::4        91403      0.20%     99.46% # Number of insts commited each cycle
system.switch_cpus_1.commit.COM:committed_per_cycle::5        87120      0.19%     99.65% # Number of insts commited each cycle
system.switch_cpus_1.commit.COM:committed_per_cycle::6        49433      0.11%     99.75% # Number of insts commited each cycle
system.switch_cpus_1.commit.COM:committed_per_cycle::7        31293      0.07%     99.82% # Number of insts commited each cycle
system.switch_cpus_1.commit.COM:committed_per_cycle::8        83852      0.18%    100.00% # Number of insts commited each cycle
system.switch_cpus_1.commit.COM:committed_per_cycle::overflows            0      0.00%    100.00% # Number of insts commited each cycle
system.switch_cpus_1.commit.COM:committed_per_cycle::min_value            0                       # Number of insts commited each cycle
system.switch_cpus_1.commit.COM:committed_per_cycle::max_value            8                       # Number of insts commited each cycle
system.switch_cpus_1.commit.COM:committed_per_cycle::total     46735419                       # Number of insts commited each cycle
system.switch_cpus_1.commit.COM:count        10313748                       # Number of instructions committed
system.switch_cpus_1.commit.COM:loads         2510912                       # Number of loads committed
system.switch_cpus_1.commit.COM:membars             0                       # Number of memory barriers committed
system.switch_cpus_1.commit.COM:refs          2655008                       # Number of memory references committed
system.switch_cpus_1.commit.COM:swp_count            0                       # Number of s/w prefetches committed
system.switch_cpus_1.commit.branchMispredicts        20231                       # The number of times a branch was mispredicted
system.switch_cpus_1.commit.commitCommittedInsts     10313748                       # The number of committed instructions
system.switch_cpus_1.commit.commitNonSpecStalls            1                       # The number of times commit has been forced to stall to communicate backwards
system.switch_cpus_1.commit.commitSquashedInsts     21870780                       # The number of squashed insts skipped by commit
system.switch_cpus_1.committedInsts          10000000                       # Number of Instructions Simulated
system.switch_cpus_1.committedInsts_total     10000000                       # Number of Instructions Simulated
system.switch_cpus_1.cpi                    12.494456                       # CPI: Cycles Per Instruction
system.switch_cpus_1.cpi_total              12.494456                       # CPI: Total CPI of All Threads
system.switch_cpus_1.decode.DECODE:BlockedCycles     31966467                       # Number of cycles decode is blocked
system.switch_cpus_1.decode.DECODE:BranchMispred          342                       # Number of times decode detected a branch misprediction
system.switch_cpus_1.decode.DECODE:BranchResolved        88937                       # Number of times decode resolved a branch
system.switch_cpus_1.decode.DECODE:DecodedInsts     33956429                       # Number of instructions handled by decode
system.switch_cpus_1.decode.DECODE:IdleCycles      7635933                       # Number of cycles decode is idle
system.switch_cpus_1.decode.DECODE:RunCycles      6516620                       # Number of cycles decode is running
system.switch_cpus_1.decode.DECODE:SquashCycles      2935987                       # Number of cycles decode is squashing
system.switch_cpus_1.decode.DECODE:SquashedInsts         1411                       # Number of squashed instructions handled by decode
system.switch_cpus_1.decode.DECODE:UnblockCycles       616398                       # Number of cycles decode is unblocking
system.switch_cpus_1.dtb.data_accesses        3997462                       # DTB accesses
system.switch_cpus_1.dtb.data_acv                   0                       # DTB access violations
system.switch_cpus_1.dtb.data_hits            3406169                       # DTB hits
system.switch_cpus_1.dtb.data_misses           591293                       # DTB misses
system.switch_cpus_1.dtb.fetch_accesses             0                       # ITB accesses
system.switch_cpus_1.dtb.fetch_acv                  0                       # ITB acv
system.switch_cpus_1.dtb.fetch_hits                 0                       # ITB hits
system.switch_cpus_1.dtb.fetch_misses               0                       # ITB misses
system.switch_cpus_1.dtb.read_accesses        3828968                       # DTB read accesses
system.switch_cpus_1.dtb.read_acv                   0                       # DTB read access violations
system.switch_cpus_1.dtb.read_hits            3238318                       # DTB read hits
system.switch_cpus_1.dtb.read_misses           590650                       # DTB read misses
system.switch_cpus_1.dtb.write_accesses        168494                       # DTB write accesses
system.switch_cpus_1.dtb.write_acv                  0                       # DTB write access violations
system.switch_cpus_1.dtb.write_hits            167851                       # DTB write hits
system.switch_cpus_1.dtb.write_misses             643                       # DTB write misses
system.switch_cpus_1.fetch.Branches           5386704                       # Number of branches that fetch encountered
system.switch_cpus_1.fetch.CacheLines         3248554                       # Number of cache lines fetched
system.switch_cpus_1.fetch.Cycles            10663811                       # Number of cycles fetch has run and was not squashing or blocked
system.switch_cpus_1.fetch.IcacheSquashes         4406                       # Number of outstanding Icache misses that were squashed
system.switch_cpus_1.fetch.Insts             35327914                       # Number of instructions fetch has processed
system.switch_cpus_1.fetch.SquashCycles        315293                       # Number of cycles fetch has spent squashing
system.switch_cpus_1.fetch.branchRate        0.043113                       # Number of branch fetches per cycle
system.switch_cpus_1.fetch.icacheStallCycles      3248554                       # Number of cycles fetch is stalled on an Icache miss
system.switch_cpus_1.fetch.predictedBranches      4725825                       # Number of branches that fetch has predicted taken
system.switch_cpus_1.fetch.rate              0.282749                       # Number of inst fetches per cycle
system.switch_cpus_1.fetch.rateDist::samples     49671406                       # Number of instructions fetched each cycle (Total)
system.switch_cpus_1.fetch.rateDist::mean     0.711232                       # Number of instructions fetched each cycle (Total)
system.switch_cpus_1.fetch.rateDist::stdev     1.913015                       # Number of instructions fetched each cycle (Total)
system.switch_cpus_1.fetch.rateDist::underflows            0      0.00%      0.00% # Number of instructions fetched each cycle (Total)
system.switch_cpus_1.fetch.rateDist::0       42256208     85.07%     85.07% # Number of instructions fetched each cycle (Total)
system.switch_cpus_1.fetch.rateDist::1         935969      1.88%     86.96% # Number of instructions fetched each cycle (Total)
system.switch_cpus_1.fetch.rateDist::2          74699      0.15%     87.11% # Number of instructions fetched each cycle (Total)
system.switch_cpus_1.fetch.rateDist::3          62346      0.13%     87.23% # Number of instructions fetched each cycle (Total)
system.switch_cpus_1.fetch.rateDist::4        4077870      8.21%     95.44% # Number of instructions fetched each cycle (Total)
system.switch_cpus_1.fetch.rateDist::5          56652      0.11%     95.56% # Number of instructions fetched each cycle (Total)
system.switch_cpus_1.fetch.rateDist::6          82296      0.17%     95.72% # Number of instructions fetched each cycle (Total)
system.switch_cpus_1.fetch.rateDist::7          35935      0.07%     95.79% # Number of instructions fetched each cycle (Total)
system.switch_cpus_1.fetch.rateDist::8        2089431      4.21%    100.00% # Number of instructions fetched each cycle (Total)
system.switch_cpus_1.fetch.rateDist::overflows            0      0.00%    100.00% # Number of instructions fetched each cycle (Total)
system.switch_cpus_1.fetch.rateDist::min_value            0                       # Number of instructions fetched each cycle (Total)
system.switch_cpus_1.fetch.rateDist::max_value            8                       # Number of instructions fetched each cycle (Total)
system.switch_cpus_1.fetch.rateDist::total     49671406                       # Number of instructions fetched each cycle (Total)
system.switch_cpus_1.idleCycles              75273153                       # Total number of cycles that the CPU has spent unscheduled due to idling
system.switch_cpus_1.iew.EXEC:branches        2328410                       # Number of branches executed
system.switch_cpus_1.iew.EXEC:nop              363739                       # number of nop insts executed
system.switch_cpus_1.iew.EXEC:rate           0.114261                       # Inst execution rate
system.switch_cpus_1.iew.EXEC:refs            4003860                       # number of memory reference insts executed
system.switch_cpus_1.iew.EXEC:stores           168494                       # Number of stores executed
system.switch_cpus_1.iew.EXEC:swp                   0                       # number of swp insts executed
system.switch_cpus_1.iew.WB:consumers        12082497                       # num instructions consuming a value
system.switch_cpus_1.iew.WB:count            13662866                       # cumulative count of insts written-back
system.switch_cpus_1.iew.WB:fanout           0.654915                       # average fanout of values written-back
system.switch_cpus_1.iew.WB:penalized               0                       # number of instrctions required to write to 'other' IQ
system.switch_cpus_1.iew.WB:penalized_rate            0                       # fraction of instructions written-back that wrote to 'other' IQ
system.switch_cpus_1.iew.WB:producers         7913009                       # num instructions producing a value
system.switch_cpus_1.iew.WB:rate             0.109351                       # insts written-back per cycle
system.switch_cpus_1.iew.WB:sent             14255041                       # cumulative count of insts sent to commit
system.switch_cpus_1.iew.branchMispredicts        23115                       # Number of branch mispredicts detected at execute
system.switch_cpus_1.iew.iewBlockCycles      21738791                       # Number of cycles IEW is blocking
system.switch_cpus_1.iew.iewDispLoadInsts      8757650                       # Number of dispatched load instructions
system.switch_cpus_1.iew.iewDispNonSpecInsts            1                       # Number of dispatched non-speculative instructions
system.switch_cpus_1.iew.iewDispSquashedInsts        20560                       # Number of squashed instructions skipped by dispatch
system.switch_cpus_1.iew.iewDispStoreInsts       185795                       # Number of dispatched store instructions
system.switch_cpus_1.iew.iewDispatchedInsts     32627567                       # Number of instructions dispatched to IQ
system.switch_cpus_1.iew.iewExecLoadInsts      3835366                       # Number of load instructions executed
system.switch_cpus_1.iew.iewExecSquashedInsts        18702                       # Number of squashed instructions skipped in execute
system.switch_cpus_1.iew.iewExecutedInsts     14276229                       # Number of executed instructions
system.switch_cpus_1.iew.iewIQFullEvents       420439                       # Number of times the IQ has become full, causing a stall
system.switch_cpus_1.iew.iewIdleCycles              0                       # Number of cycles IEW is idle
system.switch_cpus_1.iew.iewLSQFullEvents          888                       # Number of times the LSQ has become full, causing a stall
system.switch_cpus_1.iew.iewSquashCycles      2935987                       # Number of cycles IEW is squashing
system.switch_cpus_1.iew.iewUnblockCycles      1048592                       # Number of cycles IEW is unblocking
system.switch_cpus_1.iew.lsq.thread.0.blockedLoads            0                       # Number of blocked loads due to partial load-store forwarding
system.switch_cpus_1.iew.lsq.thread.0.cacheBlocked         5318                       # Number of times an access to memory failed due to the cache being blocked
system.switch_cpus_1.iew.lsq.thread.0.forwLoads        32996                       # Number of loads that had data forwarded from stores
system.switch_cpus_1.iew.lsq.thread.0.ignoredResponses          254                       # Number of memory responses ignored because the instruction is squashed
system.switch_cpus_1.iew.lsq.thread.0.invAddrLoads            0                       # Number of loads ignored due to an invalid address
system.switch_cpus_1.iew.lsq.thread.0.invAddrSwpfs            0                       # Number of software prefetches ignored due to an invalid address
system.switch_cpus_1.iew.lsq.thread.0.memOrderViolation          590                       # Number of memory ordering violations
system.switch_cpus_1.iew.lsq.thread.0.rescheduledLoads            0                       # Number of loads that were rescheduled
system.switch_cpus_1.iew.lsq.thread.0.squashedLoads      6246717                       # Number of loads squashed
system.switch_cpus_1.iew.lsq.thread.0.squashedStores        41699                       # Number of stores squashed
system.switch_cpus_1.iew.memOrderViolationEvents          590                       # Number of memory order violations
system.switch_cpus_1.iew.predictedNotTakenIncorrect         7106                       # Number of branches that were predicted not taken incorrectly
system.switch_cpus_1.iew.predictedTakenIncorrect        16009                       # Number of branches that were predicted taken incorrectly
system.switch_cpus_1.ipc                     0.080035                       # IPC: Instructions Per Cycle
system.switch_cpus_1.ipc_total               0.080035                       # IPC: Total IPC of All Threads
system.switch_cpus_1.iq.ISSUE:FU_type_0::No_OpClass            0      0.00%      0.00% # Type of FU issued
system.switch_cpus_1.iq.ISSUE:FU_type_0::IntAlu     10278283     71.90%     71.90% # Type of FU issued
system.switch_cpus_1.iq.ISSUE:FU_type_0::IntMult         1084      0.01%     71.91% # Type of FU issued
system.switch_cpus_1.iq.ISSUE:FU_type_0::IntDiv            0      0.00%     71.91% # Type of FU issued
system.switch_cpus_1.iq.ISSUE:FU_type_0::FloatAdd         4166      0.03%     71.94% # Type of FU issued
system.switch_cpus_1.iq.ISSUE:FU_type_0::FloatCmp            0      0.00%     71.94% # Type of FU issued
system.switch_cpus_1.iq.ISSUE:FU_type_0::FloatCvt         1100      0.01%     71.95% # Type of FU issued
system.switch_cpus_1.iq.ISSUE:FU_type_0::FloatMult          220      0.00%     71.95% # Type of FU issued
system.switch_cpus_1.iq.ISSUE:FU_type_0::FloatDiv            0      0.00%     71.95% # Type of FU issued
system.switch_cpus_1.iq.ISSUE:FU_type_0::FloatSqrt            0      0.00%     71.95% # Type of FU issued
system.switch_cpus_1.iq.ISSUE:FU_type_0::MemRead      3839844     26.86%     98.81% # Type of FU issued
system.switch_cpus_1.iq.ISSUE:FU_type_0::MemWrite       170234      1.19%    100.00% # Type of FU issued
system.switch_cpus_1.iq.ISSUE:FU_type_0::IprAccess            0      0.00%    100.00% # Type of FU issued
system.switch_cpus_1.iq.ISSUE:FU_type_0::InstPrefetch            0      0.00%    100.00% # Type of FU issued
system.switch_cpus_1.iq.ISSUE:FU_type_0::total     14294931                       # Type of FU issued
system.switch_cpus_1.iq.ISSUE:fu_busy_cnt         8913                       # FU busy when requested
system.switch_cpus_1.iq.ISSUE:fu_busy_rate     0.000624                       # FU busy rate (busy events/executed inst)
system.switch_cpus_1.iq.ISSUE:fu_full::No_OpClass            0      0.00%      0.00% # attempts to use FU when none available
system.switch_cpus_1.iq.ISSUE:fu_full::IntAlu           67      0.75%      0.75% # attempts to use FU when none available
system.switch_cpus_1.iq.ISSUE:fu_full::IntMult            0      0.00%      0.75% # attempts to use FU when none available
system.switch_cpus_1.iq.ISSUE:fu_full::IntDiv            0      0.00%      0.75% # attempts to use FU when none available
system.switch_cpus_1.iq.ISSUE:fu_full::FloatAdd            0      0.00%      0.75% # attempts to use FU when none available
system.switch_cpus_1.iq.ISSUE:fu_full::FloatCmp            0      0.00%      0.75% # attempts to use FU when none available
system.switch_cpus_1.iq.ISSUE:fu_full::FloatCvt            0      0.00%      0.75% # attempts to use FU when none available
system.switch_cpus_1.iq.ISSUE:fu_full::FloatMult            0      0.00%      0.75% # attempts to use FU when none available
system.switch_cpus_1.iq.ISSUE:fu_full::FloatDiv            0      0.00%      0.75% # attempts to use FU when none available
system.switch_cpus_1.iq.ISSUE:fu_full::FloatSqrt            0      0.00%      0.75% # attempts to use FU when none available
system.switch_cpus_1.iq.ISSUE:fu_full::MemRead         4973     55.79%     56.55% # attempts to use FU when none available
system.switch_cpus_1.iq.ISSUE:fu_full::MemWrite         3873     43.45%    100.00% # attempts to use FU when none available
system.switch_cpus_1.iq.ISSUE:fu_full::IprAccess            0      0.00%    100.00% # attempts to use FU when none available
system.switch_cpus_1.iq.ISSUE:fu_full::InstPrefetch            0      0.00%    100.00% # attempts to use FU when none available
system.switch_cpus_1.iq.ISSUE:issued_per_cycle::samples     49671406                       # Number of insts issued each cycle
system.switch_cpus_1.iq.ISSUE:issued_per_cycle::mean     0.287790                       # Number of insts issued each cycle
system.switch_cpus_1.iq.ISSUE:issued_per_cycle::stdev     0.673584                       # Number of insts issued each cycle
system.switch_cpus_1.iq.ISSUE:issued_per_cycle::underflows            0      0.00%      0.00% # Number of insts issued each cycle
system.switch_cpus_1.iq.ISSUE:issued_per_cycle::0     39430858     79.38%     79.38% # Number of insts issued each cycle
system.switch_cpus_1.iq.ISSUE:issued_per_cycle::1      7779171     15.66%     95.04% # Number of insts issued each cycle
system.switch_cpus_1.iq.ISSUE:issued_per_cycle::2      1250743      2.52%     97.56% # Number of insts issued each cycle
system.switch_cpus_1.iq.ISSUE:issued_per_cycle::3       950791      1.91%     99.48% # Number of insts issued each cycle
system.switch_cpus_1.iq.ISSUE:issued_per_cycle::4       157757      0.32%     99.79% # Number of insts issued each cycle
system.switch_cpus_1.iq.ISSUE:issued_per_cycle::5        86521      0.17%     99.97% # Number of insts issued each cycle
system.switch_cpus_1.iq.ISSUE:issued_per_cycle::6        10911      0.02%     99.99% # Number of insts issued each cycle
system.switch_cpus_1.iq.ISSUE:issued_per_cycle::7         4430      0.01%    100.00% # Number of insts issued each cycle
system.switch_cpus_1.iq.ISSUE:issued_per_cycle::8          224      0.00%    100.00% # Number of insts issued each cycle
system.switch_cpus_1.iq.ISSUE:issued_per_cycle::overflows            0      0.00%    100.00% # Number of insts issued each cycle
system.switch_cpus_1.iq.ISSUE:issued_per_cycle::min_value            0                       # Number of insts issued each cycle
system.switch_cpus_1.iq.ISSUE:issued_per_cycle::max_value            8                       # Number of insts issued each cycle
system.switch_cpus_1.iq.ISSUE:issued_per_cycle::total     49671406                       # Number of insts issued each cycle
system.switch_cpus_1.iq.ISSUE:rate           0.114410                       # Inst issue rate
system.switch_cpus_1.iq.iqInstsAdded         32263827                       # Number of instructions added to the IQ (excludes non-spec)
system.switch_cpus_1.iq.iqInstsIssued        14294931                       # Number of instructions issued
system.switch_cpus_1.iq.iqNonSpecInstsAdded            1                       # Number of non-speculative instructions added to the IQ
system.switch_cpus_1.iq.iqSquashedInstsExamined     22244661                       # Number of squashed instructions iterated over during squash; mainly for profiling
system.switch_cpus_1.iq.iqSquashedInstsIssued          525                       # Number of squashed instructions issued
system.switch_cpus_1.iq.iqSquashedOperandsExamined     31591457                       # Number of squashed operands that are examined and possibly removed from graph
system.switch_cpus_1.itb.data_accesses              0                       # DTB accesses
system.switch_cpus_1.itb.data_acv                   0                       # DTB access violations
system.switch_cpus_1.itb.data_hits                  0                       # DTB hits
system.switch_cpus_1.itb.data_misses                0                       # DTB misses
system.switch_cpus_1.itb.fetch_accesses       3248614                       # ITB accesses
system.switch_cpus_1.itb.fetch_acv                  0                       # ITB acv
system.switch_cpus_1.itb.fetch_hits           3248554                       # ITB hits
system.switch_cpus_1.itb.fetch_misses              60                       # ITB misses
system.switch_cpus_1.itb.read_accesses              0                       # DTB read accesses
system.switch_cpus_1.itb.read_acv                   0                       # DTB read access violations
system.switch_cpus_1.itb.read_hits                  0                       # DTB read hits
system.switch_cpus_1.itb.read_misses                0                       # DTB read misses
system.switch_cpus_1.itb.write_accesses             0                       # DTB write accesses
system.switch_cpus_1.itb.write_acv                  0                       # DTB write access violations
system.switch_cpus_1.itb.write_hits                 0                       # DTB write hits
system.switch_cpus_1.itb.write_misses               0                       # DTB write misses
system.switch_cpus_1.memDep0.conflictingLoads        67445                       # Number of conflicting loads.
system.switch_cpus_1.memDep0.conflictingStores         2621                       # Number of conflicting stores.
system.switch_cpus_1.memDep0.insertedLoads      8757650                       # Number of loads inserted to the mem dependence unit.
system.switch_cpus_1.memDep0.insertedStores       185795                       # Number of stores inserted to the mem dependence unit.
system.switch_cpus_1.numCycles              124944559                       # number of cpu cycles simulated
system.switch_cpus_1.rename.RENAME:BlockCycles     27947833                       # Number of cycles rename is blocking
system.switch_cpus_1.rename.RENAME:CommittedMaps      8255878                       # Number of HB maps that are committed
system.switch_cpus_1.rename.RENAME:IQFullEvents      4198504                       # Number of times rename has blocked due to IQ full
system.switch_cpus_1.rename.RENAME:IdleCycles      8237324                       # Number of cycles rename is idle
system.switch_cpus_1.rename.RENAME:LSQFullEvents        26794                       # Number of times rename has blocked due to LSQ full
system.switch_cpus_1.rename.RENAME:ROBFullEvents          990                       # Number of times rename has blocked due to ROB full
system.switch_cpus_1.rename.RENAME:RenameLookups     53259202                       # Number of register rename lookups that rename has made
system.switch_cpus_1.rename.RENAME:RenamedInsts     33060677                       # Number of instructions processed by rename
system.switch_cpus_1.rename.RENAME:RenamedOperands     27511643                       # Number of destination operands rename has renamed
system.switch_cpus_1.rename.RENAME:RunCycles      6568419                       # Number of cycles rename is running
system.switch_cpus_1.rename.RENAME:SquashCycles      2935987                       # Number of cycles rename is squashing
system.switch_cpus_1.rename.RENAME:UnblockCycles      3981831                       # Number of cycles rename is unblocking
system.switch_cpus_1.rename.RENAME:UndoneMaps     19255699                       # Number of HB maps that are undone due to squashing
system.switch_cpus_1.rename.RENAME:serializeStallCycles           11                       # count of cycles rename stalled for serializing inst
system.switch_cpus_1.rename.RENAME:serializingInsts            1                       # count of serializing insts renamed
system.switch_cpus_1.rename.RENAME:skidInsts      7605732                       # count of insts added to the skid buffer
system.switch_cpus_1.rename.RENAME:tempSerializingInsts            1                       # count of temporary serializing insts renamed
system.switch_cpus_1.timesIdled               1454600                       # Number of times that the entire CPU went into an idle state and unscheduled itself

---------- End Simulation Statistics   ----------
