
---------- Begin Simulation Statistics ----------
host_inst_rate                                 333335                       # Simulator instruction rate (inst/s)
host_mem_usage                                 391388                       # Number of bytes of host memory used
host_seconds                                    60.00                       # Real time elapsed on the host
host_tick_rate                              325704251                       # Simulator tick rate (ticks/s)
sim_freq                                 1000000000000                       # Frequency of simulated ticks
sim_insts                                    20000006                       # Number of instructions simulated
sim_seconds                                  0.019542                       # Number of seconds simulated
sim_ticks                                 19542229000                       # Number of ticks simulated
system.cpu.dcache.ReadReq_accesses            2923661                       # number of ReadReq accesses(hits+misses)
system.cpu.dcache.ReadReq_avg_miss_latency 21199.173906                       # average ReadReq miss latency
system.cpu.dcache.ReadReq_avg_mshr_miss_latency 11090.389367                       # average ReadReq mshr miss latency
system.cpu.dcache.ReadReq_hits                2778278                       # number of ReadReq hits
system.cpu.dcache.ReadReq_miss_latency     3081999500                       # number of ReadReq miss cycles
system.cpu.dcache.ReadReq_miss_rate          0.049726                       # miss rate for ReadReq accesses
system.cpu.dcache.ReadReq_misses               145383                       # number of ReadReq misses
system.cpu.dcache.ReadReq_mshr_hits             93170                       # number of ReadReq MSHR hits
system.cpu.dcache.ReadReq_mshr_miss_latency    579062500                       # number of ReadReq MSHR miss cycles
system.cpu.dcache.ReadReq_mshr_miss_rate     0.017859                       # mshr miss rate for ReadReq accesses
system.cpu.dcache.ReadReq_mshr_misses           52213                       # number of ReadReq MSHR misses
system.cpu.dcache.WriteReq_accesses           1252170                       # number of WriteReq accesses(hits+misses)
system.cpu.dcache.WriteReq_avg_miss_latency 48576.991787                       # average WriteReq miss latency
system.cpu.dcache.WriteReq_avg_mshr_miss_latency 44455.654229                       # average WriteReq mshr miss latency
system.cpu.dcache.WriteReq_hits               1068566                       # number of WriteReq hits
system.cpu.dcache.WriteReq_miss_latency    8918930000                       # number of WriteReq miss cycles
system.cpu.dcache.WriteReq_miss_rate         0.146629                       # miss rate for WriteReq accesses
system.cpu.dcache.WriteReq_misses              183604                       # number of WriteReq misses
system.cpu.dcache.WriteReq_mshr_hits           105344                       # number of WriteReq MSHR hits
system.cpu.dcache.WriteReq_mshr_miss_latency   3479099500                       # number of WriteReq MSHR miss cycles
system.cpu.dcache.WriteReq_mshr_miss_rate     0.062500                       # mshr miss rate for WriteReq accesses
system.cpu.dcache.WriteReq_mshr_misses          78260                       # number of WriteReq MSHR misses
system.cpu.dcache.avg_blocked_cycles::no_mshrs     no_value                       # average number of cycles each access was blocked
system.cpu.dcache.avg_blocked_cycles::no_targets 40812.175246                       # average number of cycles each access was blocked
system.cpu.dcache.avg_refs                  51.140564                       # Average number of references to valid blocks.
system.cpu.dcache.blocked::no_mshrs                 0                       # number of cycles access was blocked
system.cpu.dcache.blocked::no_targets           35219                       # number of cycles access was blocked
system.cpu.dcache.blocked_cycles::no_mshrs            0                       # number of cycles access was blocked
system.cpu.dcache.blocked_cycles::no_targets   1437364000                       # number of cycles access was blocked
system.cpu.dcache.cache_copies                      0                       # number of cache copies performed
system.cpu.dcache.demand_accesses             4175831                       # number of demand (read+write) accesses
system.cpu.dcache.demand_avg_miss_latency 36478.430759                       # average overall miss latency
system.cpu.dcache.demand_avg_mshr_miss_latency 31103.462019                       # average overall mshr miss latency
system.cpu.dcache.demand_hits                 3846844                       # number of demand (read+write) hits
system.cpu.dcache.demand_miss_latency     12000929500                       # number of demand (read+write) miss cycles
system.cpu.dcache.demand_miss_rate           0.078784                       # miss rate for demand accesses
system.cpu.dcache.demand_misses                328987                       # number of demand (read+write) misses
system.cpu.dcache.demand_mshr_hits             198514                       # number of demand (read+write) MSHR hits
system.cpu.dcache.demand_mshr_miss_latency   4058162000                       # number of demand (read+write) MSHR miss cycles
system.cpu.dcache.demand_mshr_miss_rate      0.031245                       # mshr miss rate for demand accesses
system.cpu.dcache.demand_mshr_misses           130473                       # number of demand (read+write) MSHR misses
system.cpu.dcache.fast_writes                       0                       # number of fast writes performed
system.cpu.dcache.mshr_cap_events                   0                       # number of times MSHR cap was activated
system.cpu.dcache.no_allocate_misses                0                       # Number of misses that were no-allocate
system.cpu.dcache.occ_%::0                   0.990387                       # Average percentage of cache occupancy
system.cpu.dcache.occ_blocks::0           1014.155860                       # Average occupied blocks per context
system.cpu.dcache.overall_accesses            4175831                       # number of overall (read+write) accesses
system.cpu.dcache.overall_avg_miss_latency 36478.430759                       # average overall miss latency
system.cpu.dcache.overall_avg_mshr_miss_latency 31103.462019                       # average overall mshr miss latency
system.cpu.dcache.overall_avg_mshr_uncacheable_latency     no_value                       # average overall mshr uncacheable latency
system.cpu.dcache.overall_hits                3846844                       # number of overall hits
system.cpu.dcache.overall_miss_latency    12000929500                       # number of overall miss cycles
system.cpu.dcache.overall_miss_rate          0.078784                       # miss rate for overall accesses
system.cpu.dcache.overall_misses               328987                       # number of overall misses
system.cpu.dcache.overall_mshr_hits            198514                       # number of overall MSHR hits
system.cpu.dcache.overall_mshr_miss_latency   4058162000                       # number of overall MSHR miss cycles
system.cpu.dcache.overall_mshr_miss_rate     0.031245                       # mshr miss rate for overall accesses
system.cpu.dcache.overall_mshr_misses          130473                       # number of overall MSHR misses
system.cpu.dcache.overall_mshr_uncacheable_latency            0                       # number of overall MSHR uncacheable cycles
system.cpu.dcache.overall_mshr_uncacheable_misses            0                       # number of overall MSHR uncacheable misses
system.cpu.dcache.prefetch_accuracy          no_value                       # ratio of good prefetches to total prefetches
system.cpu.dcache.prefetch_hits                     0                       # number of prefetched blocks that were accessed
system.cpu.dcache.replacements                  77275                       # number of replacements
system.cpu.dcache.sampled_refs                  78299                       # Sample count of references to valid blocks.
system.cpu.dcache.soft_prefetch_mshr_full            0                       # number of mshr full events for SW prefetching instrutions
system.cpu.dcache.tagsinuse               1014.155860                       # Cycle average of tags in use
system.cpu.dcache.total_refs                  4004255                       # Total number of references to valid blocks.
system.cpu.dcache.warmup_cycle           500382946000                       # Cycle when the warmup percentage was hit.
system.cpu.dcache.writebacks                    77244                       # number of writebacks
system.cpu.dtb.data_accesses                        0                       # DTB accesses
system.cpu.dtb.data_acv                             0                       # DTB access violations
system.cpu.dtb.data_hits                            0                       # DTB hits
system.cpu.dtb.data_misses                          0                       # DTB misses
system.cpu.dtb.fetch_accesses                       0                       # ITB accesses
system.cpu.dtb.fetch_acv                            0                       # ITB acv
system.cpu.dtb.fetch_hits                           0                       # ITB hits
system.cpu.dtb.fetch_misses                         0                       # ITB misses
system.cpu.dtb.read_accesses                        0                       # DTB read accesses
system.cpu.dtb.read_acv                             0                       # DTB read access violations
system.cpu.dtb.read_hits                            0                       # DTB read hits
system.cpu.dtb.read_misses                          0                       # DTB read misses
system.cpu.dtb.write_accesses                       0                       # DTB write accesses
system.cpu.dtb.write_acv                            0                       # DTB write access violations
system.cpu.dtb.write_hits                           0                       # DTB write hits
system.cpu.dtb.write_misses                         0                       # DTB write misses
system.cpu.icache.ReadReq_accesses           12538343                       # number of ReadReq accesses(hits+misses)
system.cpu.icache.ReadReq_avg_miss_latency        62700                       # average ReadReq miss latency
system.cpu.icache.ReadReq_avg_mshr_miss_latency 60866.666667                       # average ReadReq mshr miss latency
system.cpu.icache.ReadReq_hits               12538293                       # number of ReadReq hits
system.cpu.icache.ReadReq_miss_latency        3135000                       # number of ReadReq miss cycles
system.cpu.icache.ReadReq_miss_rate          0.000004                       # miss rate for ReadReq accesses
system.cpu.icache.ReadReq_misses                   50                       # number of ReadReq misses
system.cpu.icache.ReadReq_mshr_hits                 4                       # number of ReadReq MSHR hits
system.cpu.icache.ReadReq_mshr_miss_latency      2739000                       # number of ReadReq MSHR miss cycles
system.cpu.icache.ReadReq_mshr_miss_rate     0.000004                       # mshr miss rate for ReadReq accesses
system.cpu.icache.ReadReq_mshr_misses              45                       # number of ReadReq MSHR misses
system.cpu.icache.avg_blocked_cycles::no_mshrs     no_value                       # average number of cycles each access was blocked
system.cpu.icache.avg_blocked_cycles::no_targets     no_value                       # average number of cycles each access was blocked
system.cpu.icache.avg_refs               272571.586957                       # Average number of references to valid blocks.
system.cpu.icache.blocked::no_mshrs                 0                       # number of cycles access was blocked
system.cpu.icache.blocked::no_targets               0                       # number of cycles access was blocked
system.cpu.icache.blocked_cycles::no_mshrs            0                       # number of cycles access was blocked
system.cpu.icache.blocked_cycles::no_targets            0                       # number of cycles access was blocked
system.cpu.icache.cache_copies                      0                       # number of cache copies performed
system.cpu.icache.demand_accesses            12538343                       # number of demand (read+write) accesses
system.cpu.icache.demand_avg_miss_latency        62700                       # average overall miss latency
system.cpu.icache.demand_avg_mshr_miss_latency 60866.666667                       # average overall mshr miss latency
system.cpu.icache.demand_hits                12538293                       # number of demand (read+write) hits
system.cpu.icache.demand_miss_latency         3135000                       # number of demand (read+write) miss cycles
system.cpu.icache.demand_miss_rate           0.000004                       # miss rate for demand accesses
system.cpu.icache.demand_misses                    50                       # number of demand (read+write) misses
system.cpu.icache.demand_mshr_hits                  4                       # number of demand (read+write) MSHR hits
system.cpu.icache.demand_mshr_miss_latency      2739000                       # number of demand (read+write) MSHR miss cycles
system.cpu.icache.demand_mshr_miss_rate      0.000004                       # mshr miss rate for demand accesses
system.cpu.icache.demand_mshr_misses               45                       # number of demand (read+write) MSHR misses
system.cpu.icache.fast_writes                       0                       # number of fast writes performed
system.cpu.icache.mshr_cap_events                   0                       # number of times MSHR cap was activated
system.cpu.icache.no_allocate_misses                0                       # Number of misses that were no-allocate
system.cpu.icache.occ_%::0                   0.078828                       # Average percentage of cache occupancy
system.cpu.icache.occ_blocks::0             40.359730                       # Average occupied blocks per context
system.cpu.icache.overall_accesses           12538343                       # number of overall (read+write) accesses
system.cpu.icache.overall_avg_miss_latency        62700                       # average overall miss latency
system.cpu.icache.overall_avg_mshr_miss_latency 60866.666667                       # average overall mshr miss latency
system.cpu.icache.overall_avg_mshr_uncacheable_latency     no_value                       # average overall mshr uncacheable latency
system.cpu.icache.overall_hits               12538293                       # number of overall hits
system.cpu.icache.overall_miss_latency        3135000                       # number of overall miss cycles
system.cpu.icache.overall_miss_rate          0.000004                       # miss rate for overall accesses
system.cpu.icache.overall_misses                   50                       # number of overall misses
system.cpu.icache.overall_mshr_hits                 4                       # number of overall MSHR hits
system.cpu.icache.overall_mshr_miss_latency      2739000                       # number of overall MSHR miss cycles
system.cpu.icache.overall_mshr_miss_rate     0.000004                       # mshr miss rate for overall accesses
system.cpu.icache.overall_mshr_misses              45                       # number of overall MSHR misses
system.cpu.icache.overall_mshr_uncacheable_latency            0                       # number of overall MSHR uncacheable cycles
system.cpu.icache.overall_mshr_uncacheable_misses            0                       # number of overall MSHR uncacheable misses
system.cpu.icache.prefetch_accuracy          no_value                       # ratio of good prefetches to total prefetches
system.cpu.icache.prefetch_hits                     0                       # number of prefetched blocks that were accessed
system.cpu.icache.replacements                      0                       # number of replacements
system.cpu.icache.sampled_refs                     46                       # Sample count of references to valid blocks.
system.cpu.icache.soft_prefetch_mshr_full            0                       # number of mshr full events for SW prefetching instrutions
system.cpu.icache.tagsinuse                 40.359730                       # Cycle average of tags in use
system.cpu.icache.total_refs                 12538293                       # Total number of references to valid blocks.
system.cpu.icache.warmup_cycle                      0                       # Cycle when the warmup percentage was hit.
system.cpu.icache.writebacks                        0                       # number of writebacks
system.cpu.idle_fraction                            0                       # Percentage of idle cycles
system.cpu.itb.data_accesses                        0                       # DTB accesses
system.cpu.itb.data_acv                             0                       # DTB access violations
system.cpu.itb.data_hits                            0                       # DTB hits
system.cpu.itb.data_misses                          0                       # DTB misses
system.cpu.itb.fetch_accesses                       2                       # ITB accesses
system.cpu.itb.fetch_acv                            0                       # ITB acv
system.cpu.itb.fetch_hits                           2                       # ITB hits
system.cpu.itb.fetch_misses                         0                       # ITB misses
system.cpu.itb.read_accesses                        0                       # DTB read accesses
system.cpu.itb.read_acv                             0                       # DTB read access violations
system.cpu.itb.read_hits                            0                       # DTB read hits
system.cpu.itb.read_misses                          0                       # DTB read misses
system.cpu.itb.write_accesses                       0                       # DTB write accesses
system.cpu.itb.write_acv                            0                       # DTB write access violations
system.cpu.itb.write_hits                           0                       # DTB write hits
system.cpu.itb.write_misses                         0                       # DTB write misses
system.cpu.not_idle_fraction                        1                       # Percentage of non-idle cycles
system.cpu.numCycles                                2                       # number of cpu cycles simulated
system.cpu.num_insts                                2                       # Number of instructions executed
system.cpu.num_refs                                 0                       # Number of memory references
system.cpu.workload.PROG:num_syscalls               0                       # Number of system calls
system.l2.HardPFReq_avg_mshr_miss_latency 34126.685706                       # average HardPFReq mshr miss latency
system.l2.HardPFReq_mshr_miss_latency      2670140143                       # number of HardPFReq MSHR miss cycles
system.l2.HardPFReq_mshr_miss_rate                inf                       # mshr miss rate for HardPFReq accesses
system.l2.HardPFReq_mshr_misses                 78242                       # number of HardPFReq MSHR misses
system.l2.ReadExReq_accesses                    26087                       # number of ReadExReq accesses(hits+misses)
system.l2.ReadExReq_avg_miss_latency     55909.090909                       # average ReadExReq miss latency
system.l2.ReadExReq_avg_mshr_miss_latency        40000                       # average ReadExReq mshr miss latency
system.l2.ReadExReq_hits                        26076                       # number of ReadExReq hits
system.l2.ReadExReq_miss_latency               615000                       # number of ReadExReq miss cycles
system.l2.ReadExReq_miss_rate                0.000422                       # miss rate for ReadExReq accesses
system.l2.ReadExReq_misses                         11                       # number of ReadExReq misses
system.l2.ReadExReq_mshr_miss_latency          440000                       # number of ReadExReq MSHR miss cycles
system.l2.ReadExReq_mshr_miss_rate           0.000422                       # mshr miss rate for ReadExReq accesses
system.l2.ReadExReq_mshr_misses                    11                       # number of ReadExReq MSHR misses
system.l2.ReadReq_accesses                      52258                       # number of ReadReq accesses(hits+misses)
system.l2.ReadReq_avg_miss_latency       57767.123288                       # average ReadReq miss latency
system.l2.ReadReq_avg_mshr_miss_latency  42659.722222                       # average ReadReq mshr miss latency
system.l2.ReadReq_hits                          52185                       # number of ReadReq hits
system.l2.ReadReq_miss_latency                4217000                       # number of ReadReq miss cycles
system.l2.ReadReq_miss_rate                  0.001397                       # miss rate for ReadReq accesses
system.l2.ReadReq_misses                           73                       # number of ReadReq misses
system.l2.ReadReq_mshr_miss_latency           3071500                       # number of ReadReq MSHR miss cycles
system.l2.ReadReq_mshr_miss_rate             0.001378                       # mshr miss rate for ReadReq accesses
system.l2.ReadReq_mshr_misses                      72                       # number of ReadReq MSHR misses
system.l2.UpgradeReq_accesses                   52174                       # number of UpgradeReq accesses(hits+misses)
system.l2.UpgradeReq_avg_miss_latency    60150.074750                       # average UpgradeReq miss latency
system.l2.UpgradeReq_avg_mshr_miss_latency 44427.569287                       # average UpgradeReq mshr miss latency
system.l2.UpgradeReq_miss_latency          3138270000                       # number of UpgradeReq miss cycles
system.l2.UpgradeReq_miss_rate                      1                       # miss rate for UpgradeReq accesses
system.l2.UpgradeReq_misses                     52174                       # number of UpgradeReq misses
system.l2.UpgradeReq_mshr_miss_latency     2317964000                       # number of UpgradeReq MSHR miss cycles
system.l2.UpgradeReq_mshr_miss_rate                 1                       # mshr miss rate for UpgradeReq accesses
system.l2.UpgradeReq_mshr_misses                52174                       # number of UpgradeReq MSHR misses
system.l2.Writeback_accesses                    77244                       # number of Writeback accesses(hits+misses)
system.l2.Writeback_hits                        77244                       # number of Writeback hits
system.l2.avg_blocked_cycles::no_mshrs       no_value                       # average number of cycles each access was blocked
system.l2.avg_blocked_cycles::no_targets     no_value                       # average number of cycles each access was blocked
system.l2.avg_refs                           0.012560                       # Average number of references to valid blocks.
system.l2.blocked::no_mshrs                         0                       # number of cycles access was blocked
system.l2.blocked::no_targets                       0                       # number of cycles access was blocked
system.l2.blocked_cycles::no_mshrs                  0                       # number of cycles access was blocked
system.l2.blocked_cycles::no_targets                0                       # number of cycles access was blocked
system.l2.cache_copies                              0                       # number of cache copies performed
system.l2.demand_accesses                       78345                       # number of demand (read+write) accesses
system.l2.demand_avg_miss_latency        57523.809524                       # average overall miss latency
system.l2.demand_avg_mshr_miss_latency   42307.228916                       # average overall mshr miss latency
system.l2.demand_hits                           78261                       # number of demand (read+write) hits
system.l2.demand_miss_latency                 4832000                       # number of demand (read+write) miss cycles
system.l2.demand_miss_rate                   0.001072                       # miss rate for demand accesses
system.l2.demand_misses                            84                       # number of demand (read+write) misses
system.l2.demand_mshr_hits                          0                       # number of demand (read+write) MSHR hits
system.l2.demand_mshr_miss_latency            3511500                       # number of demand (read+write) MSHR miss cycles
system.l2.demand_mshr_miss_rate              0.001059                       # mshr miss rate for demand accesses
system.l2.demand_mshr_misses                       83                       # number of demand (read+write) MSHR misses
system.l2.fast_writes                               0                       # number of fast writes performed
system.l2.mshr_cap_events                           0                       # number of times MSHR cap was activated
system.l2.no_allocate_misses                        0                       # Number of misses that were no-allocate
system.l2.occ_%::0                           0.001091                       # Average percentage of cache occupancy
system.l2.occ_%::1                           0.452143                       # Average percentage of cache occupancy
system.l2.occ_blocks::0                     17.872445                       # Average occupied blocks per context
system.l2.occ_blocks::1                   7407.903797                       # Average occupied blocks per context
system.l2.overall_accesses                      78345                       # number of overall (read+write) accesses
system.l2.overall_avg_miss_latency       57523.809524                       # average overall miss latency
system.l2.overall_avg_mshr_miss_latency  34135.354523                       # average overall mshr miss latency
system.l2.overall_avg_mshr_uncacheable_latency     no_value                       # average overall mshr uncacheable latency
system.l2.overall_hits                          78261                       # number of overall hits
system.l2.overall_miss_latency                4832000                       # number of overall miss cycles
system.l2.overall_miss_rate                  0.001072                       # miss rate for overall accesses
system.l2.overall_misses                           84                       # number of overall misses
system.l2.overall_mshr_hits                         0                       # number of overall MSHR hits
system.l2.overall_mshr_miss_latency        2673651643                       # number of overall MSHR miss cycles
system.l2.overall_mshr_miss_rate             0.999745                       # mshr miss rate for overall accesses
system.l2.overall_mshr_misses                   78325                       # number of overall MSHR misses
system.l2.overall_mshr_uncacheable_latency            0                       # number of overall MSHR uncacheable cycles
system.l2.overall_mshr_uncacheable_misses            0                       # number of overall MSHR uncacheable misses
system.l2.prefetch_accuracy                  0.666586                       # ratio of good prefetches to total prefetches
system.l2.prefetch_hits                         52155                       # number of prefetched blocks that were accessed
system.l2.prefetcher.num_hwpf_already_in_prefetcher        13017                       # number of hwpf that were already in the prefetch queue
system.l2.prefetcher.num_hwpf_evicted               0                       # number of hwpf removed due to no buffer left
system.l2.prefetcher.num_hwpf_identified        91263                       # number of hwpf identified
system.l2.prefetcher.num_hwpf_issued            78246                       # number of hwpf issued
system.l2.prefetcher.num_hwpf_removed_MSHR_hit            0                       # number of hwpf removed because MSHR allocated
system.l2.prefetcher.num_hwpf_span_page             0                       # number of hwpf spanning a virtual page
system.l2.prefetcher.num_hwpf_squashed_from_miss            0                       # number of hwpf that got squashed due to a miss aborting calculation time
system.l2.replacements                          69104                       # number of replacements
system.l2.sampled_refs                          77309                       # Sample count of references to valid blocks.
system.l2.soft_prefetch_mshr_full                   0                       # number of mshr full events for SW prefetching instrutions
system.l2.tagsinuse                       7425.776242                       # Cycle average of tags in use
system.l2.total_refs                              971                       # Total number of references to valid blocks.
system.l2.warmup_cycle                              0                       # Cycle when the warmup percentage was hit.
system.l2.writebacks                            69052                       # number of writebacks
system.switch_cpus.dtb.data_accesses          2101668                       # DTB accesses
system.switch_cpus.dtb.data_acv                     0                       # DTB access violations
system.switch_cpus.dtb.data_hits              2101344                       # DTB hits
system.switch_cpus.dtb.data_misses                324                       # DTB misses
system.switch_cpus.dtb.fetch_accesses               0                       # ITB accesses
system.switch_cpus.dtb.fetch_acv                    0                       # ITB acv
system.switch_cpus.dtb.fetch_hits                   0                       # ITB hits
system.switch_cpus.dtb.fetch_misses                 0                       # ITB misses
system.switch_cpus.dtb.read_accesses          1481486                       # DTB read accesses
system.switch_cpus.dtb.read_acv                     0                       # DTB read access violations
system.switch_cpus.dtb.read_hits              1481268                       # DTB read hits
system.switch_cpus.dtb.read_misses                218                       # DTB read misses
system.switch_cpus.dtb.write_accesses          620182                       # DTB write accesses
system.switch_cpus.dtb.write_acv                    0                       # DTB write access violations
system.switch_cpus.dtb.write_hits              620076                       # DTB write hits
system.switch_cpus.dtb.write_misses               106                       # DTB write misses
system.switch_cpus.idle_fraction                    1                       # Percentage of idle cycles
system.switch_cpus.itb.data_accesses                0                       # DTB accesses
system.switch_cpus.itb.data_acv                     0                       # DTB access violations
system.switch_cpus.itb.data_hits                    0                       # DTB hits
system.switch_cpus.itb.data_misses                  0                       # DTB misses
system.switch_cpus.itb.fetch_accesses        10000330                       # ITB accesses
system.switch_cpus.itb.fetch_acv                    0                       # ITB acv
system.switch_cpus.itb.fetch_hits            10000326                       # ITB hits
system.switch_cpus.itb.fetch_misses                 4                       # ITB misses
system.switch_cpus.itb.read_accesses                0                       # DTB read accesses
system.switch_cpus.itb.read_acv                     0                       # DTB read access violations
system.switch_cpus.itb.read_hits                    0                       # DTB read hits
system.switch_cpus.itb.read_misses                  0                       # DTB read misses
system.switch_cpus.itb.write_accesses               0                       # DTB write accesses
system.switch_cpus.itb.write_acv                    0                       # DTB write access violations
system.switch_cpus.itb.write_hits                   0                       # DTB write hits
system.switch_cpus.itb.write_misses                 0                       # DTB write misses
system.switch_cpus.not_idle_fraction                0                       # Percentage of non-idle cycles
system.switch_cpus.numCycles                 28283418                       # number of cpu cycles simulated
system.switch_cpus.num_insts                 10000001                       # Number of instructions executed
system.switch_cpus.num_refs                   2170562                       # Number of memory references
system.switch_cpus_1.BPredUnit.BTBCorrect            0                       # Number of correct BTB predictions (this stat may not work properly.
system.switch_cpus_1.BPredUnit.BTBHits        1226730                       # Number of BTB hits
system.switch_cpus_1.BPredUnit.BTBLookups      2369490                       # Number of BTB lookups
system.switch_cpus_1.BPredUnit.RASInCorrect            2                       # Number of incorrect RAS predictions.
system.switch_cpus_1.BPredUnit.condIncorrect       162752                       # Number of conditional branches incorrect
system.switch_cpus_1.BPredUnit.condPredicted      2054553                       # Number of conditional branches predicted
system.switch_cpus_1.BPredUnit.lookups        2762080                       # Number of BP lookups
system.switch_cpus_1.BPredUnit.usedRAS         240290                       # Number of times the RAS was used to get a target.
system.switch_cpus_1.commit.COM:branches      1390146                       # Number of branches committed
system.switch_cpus_1.commit.COM:bw_lim_events       520080                       # number cycles where commit BW limit reached
system.switch_cpus_1.commit.COM:bw_limited            0                       # number of insts not committed due to BW limits
system.switch_cpus_1.commit.COM:committed_per_cycle::samples      9961307                       # Number of insts commited each cycle
system.switch_cpus_1.commit.COM:committed_per_cycle::mean     1.023275                       # Number of insts commited each cycle
system.switch_cpus_1.commit.COM:committed_per_cycle::stdev     2.108385                       # Number of insts commited each cycle
system.switch_cpus_1.commit.COM:committed_per_cycle::underflows            0      0.00%      0.00% # Number of insts commited each cycle
system.switch_cpus_1.commit.COM:committed_per_cycle::0      6936401     69.63%     69.63% # Number of insts commited each cycle
system.switch_cpus_1.commit.COM:committed_per_cycle::1       964146      9.68%     79.31% # Number of insts commited each cycle
system.switch_cpus_1.commit.COM:committed_per_cycle::2       722706      7.26%     86.57% # Number of insts commited each cycle
system.switch_cpus_1.commit.COM:committed_per_cycle::3       273587      2.75%     89.31% # Number of insts commited each cycle
system.switch_cpus_1.commit.COM:committed_per_cycle::4       226946      2.28%     91.59% # Number of insts commited each cycle
system.switch_cpus_1.commit.COM:committed_per_cycle::5        91458      0.92%     92.51% # Number of insts commited each cycle
system.switch_cpus_1.commit.COM:committed_per_cycle::6       144759      1.45%     93.96% # Number of insts commited each cycle
system.switch_cpus_1.commit.COM:committed_per_cycle::7        81224      0.82%     94.78% # Number of insts commited each cycle
system.switch_cpus_1.commit.COM:committed_per_cycle::8       520080      5.22%    100.00% # Number of insts commited each cycle
system.switch_cpus_1.commit.COM:committed_per_cycle::overflows            0      0.00%    100.00% # Number of insts commited each cycle
system.switch_cpus_1.commit.COM:committed_per_cycle::min_value            0                       # Number of insts commited each cycle
system.switch_cpus_1.commit.COM:committed_per_cycle::max_value            8                       # Number of insts commited each cycle
system.switch_cpus_1.commit.COM:committed_per_cycle::total      9961307                       # Number of insts commited each cycle
system.switch_cpus_1.commit.COM:count        10193155                       # Number of instructions committed
system.switch_cpus_1.commit.COM:loads         1580244                       # Number of loads committed
system.switch_cpus_1.commit.COM:membars             0                       # Number of memory barriers committed
system.switch_cpus_1.commit.COM:refs          2212346                       # Number of memory references committed
system.switch_cpus_1.commit.COM:swp_count            0                       # Number of s/w prefetches committed
system.switch_cpus_1.commit.branchMispredicts       162741                       # The number of times a branch was mispredicted
system.switch_cpus_1.commit.commitCommittedInsts     10193155                       # The number of committed instructions
system.switch_cpus_1.commit.commitSquashedInsts      4316650                       # The number of squashed insts skipped by commit
system.switch_cpus_1.committedInsts          10000003                       # Number of Instructions Simulated
system.switch_cpus_1.committedInsts_total     10000003                       # Number of Instructions Simulated
system.switch_cpus_1.cpi                     1.080122                       # CPI: Cycles Per Instruction
system.switch_cpus_1.cpi_total               1.080122                       # CPI: Total CPI of All Threads
system.switch_cpus_1.decode.DECODE:BlockedCycles      1297754                       # Number of cycles decode is blocked
system.switch_cpus_1.decode.DECODE:BranchMispred           11                       # Number of times decode detected a branch misprediction
system.switch_cpus_1.decode.DECODE:BranchResolved       461001                       # Number of times decode resolved a branch
system.switch_cpus_1.decode.DECODE:DecodedInsts     19142875                       # Number of instructions handled by decode
system.switch_cpus_1.decode.DECODE:IdleCycles      5241963                       # Number of cycles decode is idle
system.switch_cpus_1.decode.DECODE:RunCycles      3403626                       # Number of cycles decode is running
system.switch_cpus_1.decode.DECODE:SquashCycles       806174                       # Number of cycles decode is squashing
system.switch_cpus_1.decode.DECODE:SquashedInsts           46                       # Number of squashed instructions handled by decode
system.switch_cpus_1.decode.DECODE:UnblockCycles        17963                       # Number of cycles decode is unblocking
system.switch_cpus_1.dtb.data_accesses        2860760                       # DTB accesses
system.switch_cpus_1.dtb.data_acv                   0                       # DTB access violations
system.switch_cpus_1.dtb.data_hits            2859173                       # DTB hits
system.switch_cpus_1.dtb.data_misses             1587                       # DTB misses
system.switch_cpus_1.dtb.fetch_accesses             0                       # ITB accesses
system.switch_cpus_1.dtb.fetch_acv                  0                       # ITB acv
system.switch_cpus_1.dtb.fetch_hits                 0                       # ITB hits
system.switch_cpus_1.dtb.fetch_misses               0                       # ITB misses
system.switch_cpus_1.dtb.read_accesses        2205953                       # DTB read accesses
system.switch_cpus_1.dtb.read_acv                   0                       # DTB read access violations
system.switch_cpus_1.dtb.read_hits            2204786                       # DTB read hits
system.switch_cpus_1.dtb.read_misses             1167                       # DTB read misses
system.switch_cpus_1.dtb.write_accesses        654807                       # DTB write accesses
system.switch_cpus_1.dtb.write_acv                  0                       # DTB write access violations
system.switch_cpus_1.dtb.write_hits            654387                       # DTB write hits
system.switch_cpus_1.dtb.write_misses             420                       # DTB write misses
system.switch_cpus_1.fetch.Branches           2762080                       # Number of branches that fetch encountered
system.switch_cpus_1.fetch.CacheLines         2538015                       # Number of cache lines fetched
system.switch_cpus_1.fetch.Cycles             6056997                       # Number of cycles fetch has run and was not squashing or blocked
system.switch_cpus_1.fetch.IcacheSquashes        47873                       # Number of outstanding Icache misses that were squashed
system.switch_cpus_1.fetch.Insts             19592943                       # Number of instructions fetch has processed
system.switch_cpus_1.fetch.SquashCycles        445992                       # Number of cycles fetch has spent squashing
system.switch_cpus_1.fetch.branchRate        0.255719                       # Number of branch fetches per cycle
system.switch_cpus_1.fetch.icacheStallCycles      2538015                       # Number of cycles fetch is stalled on an Icache miss
system.switch_cpus_1.fetch.predictedBranches      1467020                       # Number of branches that fetch has predicted taken
system.switch_cpus_1.fetch.rate              1.813956                       # Number of inst fetches per cycle
system.switch_cpus_1.fetch.rateDist::samples     10767481                       # Number of instructions fetched each cycle (Total)
system.switch_cpus_1.fetch.rateDist::mean     1.819640                       # Number of instructions fetched each cycle (Total)
system.switch_cpus_1.fetch.rateDist::stdev     2.938374                       # Number of instructions fetched each cycle (Total)
system.switch_cpus_1.fetch.rateDist::underflows            0      0.00%      0.00% # Number of instructions fetched each cycle (Total)
system.switch_cpus_1.fetch.rateDist::0        7248507     67.32%     67.32% # Number of instructions fetched each cycle (Total)
system.switch_cpus_1.fetch.rateDist::1         197624      1.84%     69.15% # Number of instructions fetched each cycle (Total)
system.switch_cpus_1.fetch.rateDist::2         181683      1.69%     70.84% # Number of instructions fetched each cycle (Total)
system.switch_cpus_1.fetch.rateDist::3         524139      4.87%     75.71% # Number of instructions fetched each cycle (Total)
system.switch_cpus_1.fetch.rateDist::4         437153      4.06%     79.77% # Number of instructions fetched each cycle (Total)
system.switch_cpus_1.fetch.rateDist::5         246507      2.29%     82.06% # Number of instructions fetched each cycle (Total)
system.switch_cpus_1.fetch.rateDist::6         414499      3.85%     85.91% # Number of instructions fetched each cycle (Total)
system.switch_cpus_1.fetch.rateDist::7         147557      1.37%     87.28% # Number of instructions fetched each cycle (Total)
system.switch_cpus_1.fetch.rateDist::8        1369812     12.72%    100.00% # Number of instructions fetched each cycle (Total)
system.switch_cpus_1.fetch.rateDist::overflows            0      0.00%    100.00% # Number of instructions fetched each cycle (Total)
system.switch_cpus_1.fetch.rateDist::min_value            0                       # Number of instructions fetched each cycle (Total)
system.switch_cpus_1.fetch.rateDist::max_value            8                       # Number of instructions fetched each cycle (Total)
system.switch_cpus_1.fetch.rateDist::total     10767481                       # Number of instructions fetched each cycle (Total)
system.switch_cpus_1.idleCycles                 33742                       # Total number of cycles that the CPU has spent unscheduled due to idling
system.switch_cpus_1.iew.EXEC:branches        1795349                       # Number of branches executed
system.switch_cpus_1.iew.EXEC:nop              264477                       # number of nop insts executed
system.switch_cpus_1.iew.EXEC:rate           1.122035                       # Inst execution rate
system.switch_cpus_1.iew.EXEC:refs            2931710                       # number of memory reference insts executed
system.switch_cpus_1.iew.EXEC:stores           654807                       # Number of stores executed
system.switch_cpus_1.iew.EXEC:swp                   0                       # number of swp insts executed
system.switch_cpus_1.iew.WB:consumers         9261979                       # num instructions consuming a value
system.switch_cpus_1.iew.WB:count            11563427                       # cumulative count of insts written-back
system.switch_cpus_1.iew.WB:fanout           0.681615                       # average fanout of values written-back
system.switch_cpus_1.iew.WB:penalized               0                       # number of instrctions required to write to 'other' IQ
system.switch_cpus_1.iew.WB:penalized_rate            0                       # fraction of instructions written-back that wrote to 'other' IQ
system.switch_cpus_1.iew.WB:producers         6313104                       # num instructions producing a value
system.switch_cpus_1.iew.WB:rate             1.070566                       # insts written-back per cycle
system.switch_cpus_1.iew.WB:sent             11577270                       # cumulative count of insts sent to commit
system.switch_cpus_1.iew.branchMispredicts       182830                       # Number of branch mispredicts detected at execute
system.switch_cpus_1.iew.iewBlockCycles        576664                       # Number of cycles IEW is blocking
system.switch_cpus_1.iew.iewDispLoadInsts      2426235                       # Number of dispatched load instructions
system.switch_cpus_1.iew.iewDispNonSpecInsts            0                       # Number of dispatched non-speculative instructions
system.switch_cpus_1.iew.iewDispSquashedInsts      1418099                       # Number of squashed instructions skipped by dispatch
system.switch_cpus_1.iew.iewDispStoreInsts       749999                       # Number of dispatched store instructions
system.switch_cpus_1.iew.iewDispatchedInsts     14516422                       # Number of instructions dispatched to IQ
system.switch_cpus_1.iew.iewExecLoadInsts      2276903                       # Number of load instructions executed
system.switch_cpus_1.iew.iewExecSquashedInsts       369557                       # Number of squashed instructions skipped in execute
system.switch_cpus_1.iew.iewExecutedInsts     12119348                       # Number of executed instructions
system.switch_cpus_1.iew.iewIQFullEvents       137504                       # Number of times the IQ has become full, causing a stall
system.switch_cpus_1.iew.iewIdleCycles              0                       # Number of cycles IEW is idle
system.switch_cpus_1.iew.iewLSQFullEvents            0                       # Number of times the LSQ has become full, causing a stall
system.switch_cpus_1.iew.iewSquashCycles       806174                       # Number of cycles IEW is squashing
system.switch_cpus_1.iew.iewUnblockCycles       141419                       # Number of cycles IEW is unblocking
system.switch_cpus_1.iew.lsq.thread.0.blockedLoads            0                       # Number of blocked loads due to partial load-store forwarding
system.switch_cpus_1.iew.lsq.thread.0.cacheBlocked       527779                       # Number of times an access to memory failed due to the cache being blocked
system.switch_cpus_1.iew.lsq.thread.0.forwLoads       252133                       # Number of loads that had data forwarded from stores
system.switch_cpus_1.iew.lsq.thread.0.ignoredResponses            6                       # Number of memory responses ignored because the instruction is squashed
system.switch_cpus_1.iew.lsq.thread.0.invAddrLoads            0                       # Number of loads ignored due to an invalid address
system.switch_cpus_1.iew.lsq.thread.0.invAddrSwpfs            0                       # Number of software prefetches ignored due to an invalid address
system.switch_cpus_1.iew.lsq.thread.0.memOrderViolation          123                       # Number of memory ordering violations
system.switch_cpus_1.iew.lsq.thread.0.rescheduledLoads            0                       # Number of loads that were rescheduled
system.switch_cpus_1.iew.lsq.thread.0.squashedLoads       845968                       # Number of loads squashed
system.switch_cpus_1.iew.lsq.thread.0.squashedStores       117893                       # Number of stores squashed
system.switch_cpus_1.iew.memOrderViolationEvents          123                       # Number of memory order violations
system.switch_cpus_1.iew.predictedNotTakenIncorrect        41741                       # Number of branches that were predicted not taken incorrectly
system.switch_cpus_1.iew.predictedTakenIncorrect       141089                       # Number of branches that were predicted taken incorrectly
system.switch_cpus_1.ipc                     0.925821                       # IPC: Instructions Per Cycle
system.switch_cpus_1.ipc_total               0.925821                       # IPC: Total IPC of All Threads
system.switch_cpus_1.iq.ISSUE:FU_type_0::No_OpClass            0      0.00%      0.00% # Type of FU issued
system.switch_cpus_1.iq.ISSUE:FU_type_0::IntAlu      4898206     39.22%     39.22% # Type of FU issued
system.switch_cpus_1.iq.ISSUE:FU_type_0::IntMult        35131      0.28%     39.50% # Type of FU issued
system.switch_cpus_1.iq.ISSUE:FU_type_0::IntDiv            0      0.00%     39.50% # Type of FU issued
system.switch_cpus_1.iq.ISSUE:FU_type_0::FloatAdd      2271469     18.19%     57.69% # Type of FU issued
system.switch_cpus_1.iq.ISSUE:FU_type_0::FloatCmp       258747      2.07%     59.76% # Type of FU issued
system.switch_cpus_1.iq.ISSUE:FU_type_0::FloatCvt       106528      0.85%     60.61% # Type of FU issued
system.switch_cpus_1.iq.ISSUE:FU_type_0::FloatMult      1499993     12.01%     72.63% # Type of FU issued
system.switch_cpus_1.iq.ISSUE:FU_type_0::FloatDiv       353184      2.83%     75.45% # Type of FU issued
system.switch_cpus_1.iq.ISSUE:FU_type_0::FloatSqrt        35119      0.28%     75.73% # Type of FU issued
system.switch_cpus_1.iq.ISSUE:FU_type_0::MemRead      2373836     19.01%     94.74% # Type of FU issued
system.switch_cpus_1.iq.ISSUE:FU_type_0::MemWrite       656695      5.26%    100.00% # Type of FU issued
system.switch_cpus_1.iq.ISSUE:FU_type_0::IprAccess            0      0.00%    100.00% # Type of FU issued
system.switch_cpus_1.iq.ISSUE:FU_type_0::InstPrefetch            0      0.00%    100.00% # Type of FU issued
system.switch_cpus_1.iq.ISSUE:FU_type_0::total     12488908                       # Type of FU issued
system.switch_cpus_1.iq.ISSUE:fu_busy_cnt       483990                       # FU busy when requested
system.switch_cpus_1.iq.ISSUE:fu_busy_rate     0.038754                       # FU busy rate (busy events/executed inst)
system.switch_cpus_1.iq.ISSUE:fu_full::No_OpClass            0      0.00%      0.00% # attempts to use FU when none available
system.switch_cpus_1.iq.ISSUE:fu_full::IntAlu        16012      3.31%      3.31% # attempts to use FU when none available
system.switch_cpus_1.iq.ISSUE:fu_full::IntMult            0      0.00%      3.31% # attempts to use FU when none available
system.switch_cpus_1.iq.ISSUE:fu_full::IntDiv            0      0.00%      3.31% # attempts to use FU when none available
system.switch_cpus_1.iq.ISSUE:fu_full::FloatAdd         4494      0.93%      4.24% # attempts to use FU when none available
system.switch_cpus_1.iq.ISSUE:fu_full::FloatCmp           41      0.01%      4.25% # attempts to use FU when none available
system.switch_cpus_1.iq.ISSUE:fu_full::FloatCvt            0      0.00%      4.25% # attempts to use FU when none available
system.switch_cpus_1.iq.ISSUE:fu_full::FloatMult       268671     55.51%     59.76% # attempts to use FU when none available
system.switch_cpus_1.iq.ISSUE:fu_full::FloatDiv       115221     23.81%     83.56% # attempts to use FU when none available
system.switch_cpus_1.iq.ISSUE:fu_full::FloatSqrt            0      0.00%     83.56% # attempts to use FU when none available
system.switch_cpus_1.iq.ISSUE:fu_full::MemRead        78742     16.27%     99.83% # attempts to use FU when none available
system.switch_cpus_1.iq.ISSUE:fu_full::MemWrite          809      0.17%    100.00% # attempts to use FU when none available
system.switch_cpus_1.iq.ISSUE:fu_full::IprAccess            0      0.00%    100.00% # attempts to use FU when none available
system.switch_cpus_1.iq.ISSUE:fu_full::InstPrefetch            0      0.00%    100.00% # attempts to use FU when none available
system.switch_cpus_1.iq.ISSUE:issued_per_cycle::samples     10767481                       # Number of insts issued each cycle
system.switch_cpus_1.iq.ISSUE:issued_per_cycle::mean     1.159873                       # Number of insts issued each cycle
system.switch_cpus_1.iq.ISSUE:issued_per_cycle::stdev     1.603137                       # Number of insts issued each cycle
system.switch_cpus_1.iq.ISSUE:issued_per_cycle::underflows            0      0.00%      0.00% # Number of insts issued each cycle
system.switch_cpus_1.iq.ISSUE:issued_per_cycle::0      5665620     52.62%     52.62% # Number of insts issued each cycle
system.switch_cpus_1.iq.ISSUE:issued_per_cycle::1      1741883     16.18%     68.80% # Number of insts issued each cycle
system.switch_cpus_1.iq.ISSUE:issued_per_cycle::2      1370290     12.73%     81.52% # Number of insts issued each cycle
system.switch_cpus_1.iq.ISSUE:issued_per_cycle::3       856498      7.95%     89.48% # Number of insts issued each cycle
system.switch_cpus_1.iq.ISSUE:issued_per_cycle::4       589846      5.48%     94.95% # Number of insts issued each cycle
system.switch_cpus_1.iq.ISSUE:issued_per_cycle::5       283598      2.63%     97.59% # Number of insts issued each cycle
system.switch_cpus_1.iq.ISSUE:issued_per_cycle::6       175791      1.63%     99.22% # Number of insts issued each cycle
system.switch_cpus_1.iq.ISSUE:issued_per_cycle::7        66809      0.62%     99.84% # Number of insts issued each cycle
system.switch_cpus_1.iq.ISSUE:issued_per_cycle::8        17146      0.16%    100.00% # Number of insts issued each cycle
system.switch_cpus_1.iq.ISSUE:issued_per_cycle::overflows            0      0.00%    100.00% # Number of insts issued each cycle
system.switch_cpus_1.iq.ISSUE:issued_per_cycle::min_value            0                       # Number of insts issued each cycle
system.switch_cpus_1.iq.ISSUE:issued_per_cycle::max_value            8                       # Number of insts issued each cycle
system.switch_cpus_1.iq.ISSUE:issued_per_cycle::total     10767481                       # Number of insts issued each cycle
system.switch_cpus_1.iq.ISSUE:rate           1.156249                       # Inst issue rate
system.switch_cpus_1.iq.iqInstsAdded         14251945                       # Number of instructions added to the IQ (excludes non-spec)
system.switch_cpus_1.iq.iqInstsIssued        12488908                       # Number of instructions issued
system.switch_cpus_1.iq.iqSquashedInstsExamined      4251751                       # Number of squashed instructions iterated over during squash; mainly for profiling
system.switch_cpus_1.iq.iqSquashedInstsIssued        67219                       # Number of squashed instructions issued
system.switch_cpus_1.iq.iqSquashedOperandsExamined      3798926                       # Number of squashed operands that are examined and possibly removed from graph
system.switch_cpus_1.itb.data_accesses              0                       # DTB accesses
system.switch_cpus_1.itb.data_acv                   0                       # DTB access violations
system.switch_cpus_1.itb.data_hits                  0                       # DTB hits
system.switch_cpus_1.itb.data_misses                0                       # DTB misses
system.switch_cpus_1.itb.fetch_accesses       2538023                       # ITB accesses
system.switch_cpus_1.itb.fetch_acv                  0                       # ITB acv
system.switch_cpus_1.itb.fetch_hits           2538015                       # ITB hits
system.switch_cpus_1.itb.fetch_misses               8                       # ITB misses
system.switch_cpus_1.itb.read_accesses              0                       # DTB read accesses
system.switch_cpus_1.itb.read_acv                   0                       # DTB read access violations
system.switch_cpus_1.itb.read_hits                  0                       # DTB read hits
system.switch_cpus_1.itb.read_misses                0                       # DTB read misses
system.switch_cpus_1.itb.write_accesses             0                       # DTB write accesses
system.switch_cpus_1.itb.write_acv                  0                       # DTB write access violations
system.switch_cpus_1.itb.write_hits                 0                       # DTB write hits
system.switch_cpus_1.itb.write_misses               0                       # DTB write misses
system.switch_cpus_1.memDep0.conflictingLoads       562264                       # Number of conflicting loads.
system.switch_cpus_1.memDep0.conflictingStores       131765                       # Number of conflicting stores.
system.switch_cpus_1.memDep0.insertedLoads      2426235                       # Number of loads inserted to the mem dependence unit.
system.switch_cpus_1.memDep0.insertedStores       749999                       # Number of stores inserted to the mem dependence unit.
system.switch_cpus_1.numCycles               10801223                       # number of cpu cycles simulated
system.switch_cpus_1.rename.RENAME:BlockCycles       989012                       # Number of cycles rename is blocking
system.switch_cpus_1.rename.RENAME:CommittedMaps      8012869                       # Number of HB maps that are committed
system.switch_cpus_1.rename.RENAME:IQFullEvents       143076                       # Number of times rename has blocked due to IQ full
system.switch_cpus_1.rename.RENAME:IdleCycles      5409728                       # Number of cycles rename is idle
system.switch_cpus_1.rename.RENAME:LSQFullEvents       106784                       # Number of times rename has blocked due to LSQ full
system.switch_cpus_1.rename.RENAME:ROBFullEvents          448                       # Number of times rename has blocked due to ROB full
system.switch_cpus_1.rename.RENAME:RenameLookups     27991743                       # Number of register rename lookups that rename has made
system.switch_cpus_1.rename.RENAME:RenamedInsts     18585530                       # Number of instructions processed by rename
system.switch_cpus_1.rename.RENAME:RenamedOperands     14952478                       # Number of destination operands rename has renamed
system.switch_cpus_1.rename.RENAME:RunCycles      3275134                       # Number of cycles rename is running
system.switch_cpus_1.rename.RENAME:SquashCycles       806174                       # Number of cycles rename is squashing
system.switch_cpus_1.rename.RENAME:UnblockCycles       287432                       # Number of cycles rename is unblocking
system.switch_cpus_1.rename.RENAME:UndoneMaps      6939508                       # Number of HB maps that are undone due to squashing
system.switch_cpus_1.rename.RENAME:serializeStallCycles            0                       # count of cycles rename stalled for serializing inst
system.switch_cpus_1.rename.RENAME:serializingInsts            0                       # count of serializing insts renamed
system.switch_cpus_1.rename.RENAME:skidInsts       749279                       # count of insts added to the skid buffer
system.switch_cpus_1.rename.RENAME:tempSerializingInsts            0                       # count of temporary serializing insts renamed
system.switch_cpus_1.timesIdled                 10915                       # Number of times that the entire CPU went into an idle state and unscheduled itself

---------- End Simulation Statistics   ----------
