
---------- Begin Simulation Statistics ----------
host_inst_rate                                 691297                       # Simulator instruction rate (inst/s)
host_mem_usage                                 398488                       # Number of bytes of host memory used
host_seconds                                    28.93                       # Real time elapsed on the host
host_tick_rate                              619842806                       # Simulator tick rate (ticks/s)
sim_freq                                 1000000000000                       # Frequency of simulated ticks
sim_insts                                    20000003                       # Number of instructions simulated
sim_seconds                                  0.017933                       # Number of seconds simulated
sim_ticks                                 17932849500                       # Number of ticks simulated
system.cpu.dcache.ReadReq_accesses            3308989                       # number of ReadReq accesses(hits+misses)
system.cpu.dcache.ReadReq_avg_miss_latency 19682.404727                       # average ReadReq miss latency
system.cpu.dcache.ReadReq_avg_mshr_miss_latency 16951.586046                       # average ReadReq mshr miss latency
system.cpu.dcache.ReadReq_hits                3217777                       # number of ReadReq hits
system.cpu.dcache.ReadReq_miss_latency     1795271500                       # number of ReadReq miss cycles
system.cpu.dcache.ReadReq_miss_rate          0.027565                       # miss rate for ReadReq accesses
system.cpu.dcache.ReadReq_misses                91212                       # number of ReadReq misses
system.cpu.dcache.ReadReq_mshr_hits              7135                       # number of ReadReq MSHR hits
system.cpu.dcache.ReadReq_mshr_miss_latency   1425238500                       # number of ReadReq MSHR miss cycles
system.cpu.dcache.ReadReq_mshr_miss_rate     0.025409                       # mshr miss rate for ReadReq accesses
system.cpu.dcache.ReadReq_mshr_misses           84077                       # number of ReadReq MSHR misses
system.cpu.dcache.WriteReq_accesses           2822830                       # number of WriteReq accesses(hits+misses)
system.cpu.dcache.WriteReq_avg_miss_latency 43322.835395                       # average WriteReq miss latency
system.cpu.dcache.WriteReq_avg_mshr_miss_latency 42380.181169                       # average WriteReq mshr miss latency
system.cpu.dcache.WriteReq_hits               2817575                       # number of WriteReq hits
system.cpu.dcache.WriteReq_miss_latency     227661500                       # number of WriteReq miss cycles
system.cpu.dcache.WriteReq_miss_rate         0.001862                       # miss rate for WriteReq accesses
system.cpu.dcache.WriteReq_misses                5255                       # number of WriteReq misses
system.cpu.dcache.WriteReq_mshr_hits             1611                       # number of WriteReq MSHR hits
system.cpu.dcache.WriteReq_mshr_miss_latency    154391000                       # number of WriteReq MSHR miss cycles
system.cpu.dcache.WriteReq_mshr_miss_rate     0.001291                       # mshr miss rate for WriteReq accesses
system.cpu.dcache.WriteReq_mshr_misses           3643                       # number of WriteReq MSHR misses
system.cpu.dcache.avg_blocked_cycles::no_mshrs     no_value                       # average number of cycles each access was blocked
system.cpu.dcache.avg_blocked_cycles::no_targets 28883.381924                       # average number of cycles each access was blocked
system.cpu.dcache.avg_refs                  69.385561                       # Average number of references to valid blocks.
system.cpu.dcache.blocked::no_mshrs                 0                       # number of cycles access was blocked
system.cpu.dcache.blocked::no_targets             343                       # number of cycles access was blocked
system.cpu.dcache.blocked_cycles::no_mshrs            0                       # number of cycles access was blocked
system.cpu.dcache.blocked_cycles::no_targets      9907000                       # number of cycles access was blocked
system.cpu.dcache.cache_copies                      0                       # number of cache copies performed
system.cpu.dcache.demand_accesses             6131819                       # number of demand (read+write) accesses
system.cpu.dcache.demand_avg_miss_latency 20970.207428                       # average overall miss latency
system.cpu.dcache.demand_avg_mshr_miss_latency 18007.632239                       # average overall mshr miss latency
system.cpu.dcache.demand_hits                 6035352                       # number of demand (read+write) hits
system.cpu.dcache.demand_miss_latency      2022933000                       # number of demand (read+write) miss cycles
system.cpu.dcache.demand_miss_rate           0.015732                       # miss rate for demand accesses
system.cpu.dcache.demand_misses                 96467                       # number of demand (read+write) misses
system.cpu.dcache.demand_mshr_hits               8746                       # number of demand (read+write) MSHR hits
system.cpu.dcache.demand_mshr_miss_latency   1579629500                       # number of demand (read+write) MSHR miss cycles
system.cpu.dcache.demand_mshr_miss_rate      0.014306                       # mshr miss rate for demand accesses
system.cpu.dcache.demand_mshr_misses            87720                       # number of demand (read+write) MSHR misses
system.cpu.dcache.fast_writes                       0                       # number of fast writes performed
system.cpu.dcache.mshr_cap_events                   0                       # number of times MSHR cap was activated
system.cpu.dcache.no_allocate_misses                0                       # Number of misses that were no-allocate
system.cpu.dcache.occ_%::0                   0.980636                       # Average percentage of cache occupancy
system.cpu.dcache.occ_blocks::0           1004.170938                       # Average occupied blocks per context
system.cpu.dcache.overall_accesses            6131819                       # number of overall (read+write) accesses
system.cpu.dcache.overall_avg_miss_latency 20970.207428                       # average overall miss latency
system.cpu.dcache.overall_avg_mshr_miss_latency 18007.632239                       # average overall mshr miss latency
system.cpu.dcache.overall_avg_mshr_uncacheable_latency     no_value                       # average overall mshr uncacheable latency
system.cpu.dcache.overall_hits                6035352                       # number of overall hits
system.cpu.dcache.overall_miss_latency     2022933000                       # number of overall miss cycles
system.cpu.dcache.overall_miss_rate          0.015732                       # miss rate for overall accesses
system.cpu.dcache.overall_misses                96467                       # number of overall misses
system.cpu.dcache.overall_mshr_hits              8746                       # number of overall MSHR hits
system.cpu.dcache.overall_mshr_miss_latency   1579629500                       # number of overall MSHR miss cycles
system.cpu.dcache.overall_mshr_miss_rate     0.014306                       # mshr miss rate for overall accesses
system.cpu.dcache.overall_mshr_misses           87720                       # number of overall MSHR misses
system.cpu.dcache.overall_mshr_uncacheable_latency            0                       # number of overall MSHR uncacheable cycles
system.cpu.dcache.overall_mshr_uncacheable_misses            0                       # number of overall MSHR uncacheable misses
system.cpu.dcache.prefetch_accuracy          no_value                       # ratio of good prefetches to total prefetches
system.cpu.dcache.prefetch_hits                     0                       # number of prefetched blocks that were accessed
system.cpu.dcache.replacements                  85974                       # number of replacements
system.cpu.dcache.sampled_refs                  86998                       # Sample count of references to valid blocks.
system.cpu.dcache.soft_prefetch_mshr_full            0                       # number of mshr full events for SW prefetching instrutions
system.cpu.dcache.tagsinuse               1004.170938                       # Cycle average of tags in use
system.cpu.dcache.total_refs                  6036405                       # Total number of references to valid blocks.
system.cpu.dcache.warmup_cycle           502129595000                       # Cycle when the warmup percentage was hit.
system.cpu.dcache.writebacks                     3600                       # number of writebacks
system.cpu.dtb.data_accesses                        1                       # DTB accesses
system.cpu.dtb.data_acv                             0                       # DTB access violations
system.cpu.dtb.data_hits                            1                       # DTB hits
system.cpu.dtb.data_misses                          0                       # DTB misses
system.cpu.dtb.fetch_accesses                       0                       # ITB accesses
system.cpu.dtb.fetch_acv                            0                       # ITB acv
system.cpu.dtb.fetch_hits                           0                       # ITB hits
system.cpu.dtb.fetch_misses                         0                       # ITB misses
system.cpu.dtb.read_accesses                        0                       # DTB read accesses
system.cpu.dtb.read_acv                             0                       # DTB read access violations
system.cpu.dtb.read_hits                            0                       # DTB read hits
system.cpu.dtb.read_misses                          0                       # DTB read misses
system.cpu.dtb.write_accesses                       1                       # DTB write accesses
system.cpu.dtb.write_acv                            0                       # DTB write access violations
system.cpu.dtb.write_hits                           1                       # DTB write hits
system.cpu.dtb.write_misses                         0                       # DTB write misses
system.cpu.icache.ReadReq_accesses           12217053                       # number of ReadReq accesses(hits+misses)
system.cpu.icache.ReadReq_avg_miss_latency 48769.230769                       # average ReadReq miss latency
system.cpu.icache.ReadReq_avg_mshr_miss_latency        57125                       # average ReadReq mshr miss latency
system.cpu.icache.ReadReq_hits               12217040                       # number of ReadReq hits
system.cpu.icache.ReadReq_miss_latency         634000                       # number of ReadReq miss cycles
system.cpu.icache.ReadReq_miss_rate          0.000001                       # miss rate for ReadReq accesses
system.cpu.icache.ReadReq_misses                   13                       # number of ReadReq misses
system.cpu.icache.ReadReq_mshr_hits                 4                       # number of ReadReq MSHR hits
system.cpu.icache.ReadReq_mshr_miss_latency       457000                       # number of ReadReq MSHR miss cycles
system.cpu.icache.ReadReq_mshr_miss_rate     0.000001                       # mshr miss rate for ReadReq accesses
system.cpu.icache.ReadReq_mshr_misses               8                       # number of ReadReq MSHR misses
system.cpu.icache.avg_blocked_cycles::no_mshrs     no_value                       # average number of cycles each access was blocked
system.cpu.icache.avg_blocked_cycles::no_targets        23500                       # average number of cycles each access was blocked
system.cpu.icache.avg_refs               1357448.888889                       # Average number of references to valid blocks.
system.cpu.icache.blocked::no_mshrs                 0                       # number of cycles access was blocked
system.cpu.icache.blocked::no_targets               1                       # number of cycles access was blocked
system.cpu.icache.blocked_cycles::no_mshrs            0                       # number of cycles access was blocked
system.cpu.icache.blocked_cycles::no_targets        23500                       # number of cycles access was blocked
system.cpu.icache.cache_copies                      0                       # number of cache copies performed
system.cpu.icache.demand_accesses            12217053                       # number of demand (read+write) accesses
system.cpu.icache.demand_avg_miss_latency 48769.230769                       # average overall miss latency
system.cpu.icache.demand_avg_mshr_miss_latency        57125                       # average overall mshr miss latency
system.cpu.icache.demand_hits                12217040                       # number of demand (read+write) hits
system.cpu.icache.demand_miss_latency          634000                       # number of demand (read+write) miss cycles
system.cpu.icache.demand_miss_rate           0.000001                       # miss rate for demand accesses
system.cpu.icache.demand_misses                    13                       # number of demand (read+write) misses
system.cpu.icache.demand_mshr_hits                  4                       # number of demand (read+write) MSHR hits
system.cpu.icache.demand_mshr_miss_latency       457000                       # number of demand (read+write) MSHR miss cycles
system.cpu.icache.demand_mshr_miss_rate      0.000001                       # mshr miss rate for demand accesses
system.cpu.icache.demand_mshr_misses                8                       # number of demand (read+write) MSHR misses
system.cpu.icache.fast_writes                       0                       # number of fast writes performed
system.cpu.icache.mshr_cap_events                   0                       # number of times MSHR cap was activated
system.cpu.icache.no_allocate_misses                0                       # Number of misses that were no-allocate
system.cpu.icache.occ_%::0                   0.012799                       # Average percentage of cache occupancy
system.cpu.icache.occ_blocks::0              6.553031                       # Average occupied blocks per context
system.cpu.icache.overall_accesses           12217053                       # number of overall (read+write) accesses
system.cpu.icache.overall_avg_miss_latency 48769.230769                       # average overall miss latency
system.cpu.icache.overall_avg_mshr_miss_latency        57125                       # average overall mshr miss latency
system.cpu.icache.overall_avg_mshr_uncacheable_latency     no_value                       # average overall mshr uncacheable latency
system.cpu.icache.overall_hits               12217040                       # number of overall hits
system.cpu.icache.overall_miss_latency         634000                       # number of overall miss cycles
system.cpu.icache.overall_miss_rate          0.000001                       # miss rate for overall accesses
system.cpu.icache.overall_misses                   13                       # number of overall misses
system.cpu.icache.overall_mshr_hits                 4                       # number of overall MSHR hits
system.cpu.icache.overall_mshr_miss_latency       457000                       # number of overall MSHR miss cycles
system.cpu.icache.overall_mshr_miss_rate     0.000001                       # mshr miss rate for overall accesses
system.cpu.icache.overall_mshr_misses               8                       # number of overall MSHR misses
system.cpu.icache.overall_mshr_uncacheable_latency            0                       # number of overall MSHR uncacheable cycles
system.cpu.icache.overall_mshr_uncacheable_misses            0                       # number of overall MSHR uncacheable misses
system.cpu.icache.prefetch_accuracy          no_value                       # ratio of good prefetches to total prefetches
system.cpu.icache.prefetch_hits                     0                       # number of prefetched blocks that were accessed
system.cpu.icache.replacements                      0                       # number of replacements
system.cpu.icache.sampled_refs                      9                       # Sample count of references to valid blocks.
system.cpu.icache.soft_prefetch_mshr_full            0                       # number of mshr full events for SW prefetching instrutions
system.cpu.icache.tagsinuse                  6.553031                       # Cycle average of tags in use
system.cpu.icache.total_refs                 12217040                       # Total number of references to valid blocks.
system.cpu.icache.warmup_cycle                      0                       # Cycle when the warmup percentage was hit.
system.cpu.icache.writebacks                        0                       # number of writebacks
system.cpu.idle_fraction                            0                       # Percentage of idle cycles
system.cpu.itb.data_accesses                        0                       # DTB accesses
system.cpu.itb.data_acv                             0                       # DTB access violations
system.cpu.itb.data_hits                            0                       # DTB hits
system.cpu.itb.data_misses                          0                       # DTB misses
system.cpu.itb.fetch_accesses                       2                       # ITB accesses
system.cpu.itb.fetch_acv                            0                       # ITB acv
system.cpu.itb.fetch_hits                           2                       # ITB hits
system.cpu.itb.fetch_misses                         0                       # ITB misses
system.cpu.itb.read_accesses                        0                       # DTB read accesses
system.cpu.itb.read_acv                             0                       # DTB read access violations
system.cpu.itb.read_hits                            0                       # DTB read hits
system.cpu.itb.read_misses                          0                       # DTB read misses
system.cpu.itb.write_accesses                       0                       # DTB write accesses
system.cpu.itb.write_acv                            0                       # DTB write access violations
system.cpu.itb.write_hits                           0                       # DTB write hits
system.cpu.itb.write_misses                         0                       # DTB write misses
system.cpu.not_idle_fraction                        1                       # Percentage of non-idle cycles
system.cpu.numCycles                                2                       # number of cpu cycles simulated
system.cpu.num_insts                                2                       # Number of instructions executed
system.cpu.num_refs                                 1                       # Number of memory references
system.cpu.workload.PROG:num_syscalls               0                       # Number of system calls
system.l2.HardPFReq_avg_mshr_miss_latency 30607.441059                       # average HardPFReq mshr miss latency
system.l2.HardPFReq_mshr_miss_latency       306380485                       # number of HardPFReq MSHR miss cycles
system.l2.HardPFReq_mshr_miss_rate                inf                       # mshr miss rate for HardPFReq accesses
system.l2.HardPFReq_mshr_misses                 10010                       # number of HardPFReq MSHR misses
system.l2.ReadExReq_accesses                     2921                       # number of ReadExReq accesses(hits+misses)
system.l2.ReadExReq_avg_miss_latency     56614.095898                       # average ReadExReq miss latency
system.l2.ReadExReq_avg_mshr_miss_latency 40698.265896                       # average ReadExReq mshr miss latency
system.l2.ReadExReq_hits                         1190                       # number of ReadExReq hits
system.l2.ReadExReq_miss_latency             97999000                       # number of ReadExReq miss cycles
system.l2.ReadExReq_miss_rate                0.592605                       # miss rate for ReadExReq accesses
system.l2.ReadExReq_misses                       1731                       # number of ReadExReq misses
system.l2.ReadExReq_mshr_miss_latency        70408000                       # number of ReadExReq MSHR miss cycles
system.l2.ReadExReq_mshr_miss_rate           0.592263                       # mshr miss rate for ReadExReq accesses
system.l2.ReadExReq_mshr_misses                  1730                       # number of ReadExReq MSHR misses
system.l2.ReadReq_accesses                      84086                       # number of ReadReq accesses(hits+misses)
system.l2.ReadReq_avg_miss_latency       56469.738587                       # average ReadReq miss latency
system.l2.ReadReq_avg_mshr_miss_latency  40998.413767                       # average ReadReq mshr miss latency
system.l2.ReadReq_hits                          73528                       # number of ReadReq hits
system.l2.ReadReq_miss_latency              596207500                       # number of ReadReq miss cycles
system.l2.ReadReq_miss_rate                  0.125562                       # miss rate for ReadReq accesses
system.l2.ReadReq_misses                        10558                       # number of ReadReq misses
system.l2.ReadReq_mshr_hits                       155                       # number of ReadReq MSHR hits
system.l2.ReadReq_mshr_miss_latency         426465500                       # number of ReadReq MSHR miss cycles
system.l2.ReadReq_mshr_miss_rate             0.123707                       # mshr miss rate for ReadReq accesses
system.l2.ReadReq_mshr_misses                   10402                       # number of ReadReq MSHR misses
system.l2.UpgradeReq_accesses                     723                       # number of UpgradeReq accesses(hits+misses)
system.l2.UpgradeReq_avg_miss_latency    56295.297372                       # average UpgradeReq miss latency
system.l2.UpgradeReq_avg_mshr_miss_latency 40380.359613                       # average UpgradeReq mshr miss latency
system.l2.UpgradeReq_miss_latency            40701500                       # number of UpgradeReq miss cycles
system.l2.UpgradeReq_miss_rate                      1                       # miss rate for UpgradeReq accesses
system.l2.UpgradeReq_misses                       723                       # number of UpgradeReq misses
system.l2.UpgradeReq_mshr_miss_latency       29195000                       # number of UpgradeReq MSHR miss cycles
system.l2.UpgradeReq_mshr_miss_rate                 1                       # mshr miss rate for UpgradeReq accesses
system.l2.UpgradeReq_mshr_misses                  723                       # number of UpgradeReq MSHR misses
system.l2.Writeback_accesses                     3600                       # number of Writeback accesses(hits+misses)
system.l2.Writeback_hits                         3600                       # number of Writeback hits
system.l2.avg_blocked_cycles::no_mshrs       no_value                       # average number of cycles each access was blocked
system.l2.avg_blocked_cycles::no_targets     no_value                       # average number of cycles each access was blocked
system.l2.avg_refs                           3.321682                       # Average number of references to valid blocks.
system.l2.blocked::no_mshrs                         0                       # number of cycles access was blocked
system.l2.blocked::no_targets                       0                       # number of cycles access was blocked
system.l2.blocked_cycles::no_mshrs                  0                       # number of cycles access was blocked
system.l2.blocked_cycles::no_targets                0                       # number of cycles access was blocked
system.l2.cache_copies                              0                       # number of cache copies performed
system.l2.demand_accesses                       87007                       # number of demand (read+write) accesses
system.l2.demand_avg_miss_latency        56490.072422                       # average overall miss latency
system.l2.demand_avg_mshr_miss_latency   40955.613254                       # average overall mshr miss latency
system.l2.demand_hits                           74718                       # number of demand (read+write) hits
system.l2.demand_miss_latency               694206500                       # number of demand (read+write) miss cycles
system.l2.demand_miss_rate                   0.141242                       # miss rate for demand accesses
system.l2.demand_misses                         12289                       # number of demand (read+write) misses
system.l2.demand_mshr_hits                        155                       # number of demand (read+write) MSHR hits
system.l2.demand_mshr_miss_latency          496873500                       # number of demand (read+write) MSHR miss cycles
system.l2.demand_mshr_miss_rate              0.139437                       # mshr miss rate for demand accesses
system.l2.demand_mshr_misses                    12132                       # number of demand (read+write) MSHR misses
system.l2.fast_writes                               0                       # number of fast writes performed
system.l2.mshr_cap_events                           0                       # number of times MSHR cap was activated
system.l2.no_allocate_misses                        0                       # Number of misses that were no-allocate
system.l2.occ_%::0                           0.286366                       # Average percentage of cache occupancy
system.l2.occ_%::1                           0.027214                       # Average percentage of cache occupancy
system.l2.occ_blocks::0                   9383.636329                       # Average occupied blocks per context
system.l2.occ_blocks::1                    891.747588                       # Average occupied blocks per context
system.l2.overall_accesses                      87007                       # number of overall (read+write) accesses
system.l2.overall_avg_miss_latency       56490.072422                       # average overall miss latency
system.l2.overall_avg_mshr_miss_latency  36277.390705                       # average overall mshr miss latency
system.l2.overall_avg_mshr_uncacheable_latency     no_value                       # average overall mshr uncacheable latency
system.l2.overall_hits                          74718                       # number of overall hits
system.l2.overall_miss_latency              694206500                       # number of overall miss cycles
system.l2.overall_miss_rate                  0.141242                       # miss rate for overall accesses
system.l2.overall_misses                        12289                       # number of overall misses
system.l2.overall_mshr_hits                       155                       # number of overall MSHR hits
system.l2.overall_mshr_miss_latency         803253985                       # number of overall MSHR miss cycles
system.l2.overall_mshr_miss_rate             0.254485                       # mshr miss rate for overall accesses
system.l2.overall_mshr_misses                   22142                       # number of overall MSHR misses
system.l2.overall_mshr_uncacheable_latency            0                       # number of overall MSHR uncacheable cycles
system.l2.overall_mshr_uncacheable_misses            0                       # number of overall MSHR uncacheable misses
system.l2.prefetch_accuracy                  0.867632                       # ratio of good prefetches to total prefetches
system.l2.prefetch_hits                          8685                       # number of prefetched blocks that were accessed
system.l2.prefetcher.num_hwpf_already_in_prefetcher           10                       # number of hwpf that were already in the prefetch queue
system.l2.prefetcher.num_hwpf_evicted               0                       # number of hwpf removed due to no buffer left
system.l2.prefetcher.num_hwpf_identified        10118                       # number of hwpf identified
system.l2.prefetcher.num_hwpf_issued            10013                       # number of hwpf issued
system.l2.prefetcher.num_hwpf_removed_MSHR_hit           95                       # number of hwpf removed because MSHR allocated
system.l2.prefetcher.num_hwpf_span_page             0                       # number of hwpf spanning a virtual page
system.l2.prefetcher.num_hwpf_squashed_from_miss            0                       # number of hwpf that got squashed due to a miss aborting calculation time
system.l2.replacements                            137                       # number of replacements
system.l2.sampled_refs                          22087                       # Sample count of references to valid blocks.
system.l2.soft_prefetch_mshr_full                   0                       # number of mshr full events for SW prefetching instrutions
system.l2.tagsinuse                      10275.383917                       # Cycle average of tags in use
system.l2.total_refs                            73366                       # Total number of references to valid blocks.
system.l2.warmup_cycle                              0                       # Cycle when the warmup percentage was hit.
system.l2.writebacks                               17                       # number of writebacks
system.switch_cpus.dtb.data_accesses          2972120                       # DTB accesses
system.switch_cpus.dtb.data_acv                     0                       # DTB access violations
system.switch_cpus.dtb.data_hits              2969257                       # DTB hits
system.switch_cpus.dtb.data_misses               2863                       # DTB misses
system.switch_cpus.dtb.fetch_accesses               0                       # ITB accesses
system.switch_cpus.dtb.fetch_acv                    0                       # ITB acv
system.switch_cpus.dtb.fetch_hits                   0                       # ITB hits
system.switch_cpus.dtb.fetch_misses                 0                       # ITB misses
system.switch_cpus.dtb.read_accesses          1546660                       # DTB read accesses
system.switch_cpus.dtb.read_acv                     0                       # DTB read access violations
system.switch_cpus.dtb.read_hits              1543848                       # DTB read hits
system.switch_cpus.dtb.read_misses               2812                       # DTB read misses
system.switch_cpus.dtb.write_accesses         1425460                       # DTB write accesses
system.switch_cpus.dtb.write_acv                    0                       # DTB write access violations
system.switch_cpus.dtb.write_hits             1425409                       # DTB write hits
system.switch_cpus.dtb.write_misses                51                       # DTB write misses
system.switch_cpus.idle_fraction                    1                       # Percentage of idle cycles
system.switch_cpus.itb.data_accesses                0                       # DTB accesses
system.switch_cpus.itb.data_acv                     0                       # DTB access violations
system.switch_cpus.itb.data_hits                    0                       # DTB hits
system.switch_cpus.itb.data_misses                  0                       # DTB misses
system.switch_cpus.itb.fetch_accesses        10002866                       # ITB accesses
system.switch_cpus.itb.fetch_acv                    0                       # ITB acv
system.switch_cpus.itb.fetch_hits            10002865                       # ITB hits
system.switch_cpus.itb.fetch_misses                 1                       # ITB misses
system.switch_cpus.itb.read_accesses                0                       # DTB read accesses
system.switch_cpus.itb.read_acv                     0                       # DTB read access violations
system.switch_cpus.itb.read_hits                    0                       # DTB read hits
system.switch_cpus.itb.read_misses                  0                       # DTB read misses
system.switch_cpus.itb.write_accesses               0                       # DTB write accesses
system.switch_cpus.itb.write_acv                    0                       # DTB write access violations
system.switch_cpus.itb.write_hits                   0                       # DTB write hits
system.switch_cpus.itb.write_misses                 0                       # DTB write misses
system.switch_cpus.not_idle_fraction                0                       # Percentage of non-idle cycles
system.switch_cpus.numCycles                 27729120                       # number of cpu cycles simulated
system.switch_cpus.num_insts                 10000001                       # Number of instructions executed
system.switch_cpus.num_refs                   2972120                       # Number of memory references
system.switch_cpus_1.BPredUnit.BTBCorrect            0                       # Number of correct BTB predictions (this stat may not work properly.
system.switch_cpus_1.BPredUnit.BTBHits        2072215                       # Number of BTB hits
system.switch_cpus_1.BPredUnit.BTBLookups      2133358                       # Number of BTB lookups
system.switch_cpus_1.BPredUnit.RASInCorrect            0                       # Number of incorrect RAS predictions.
system.switch_cpus_1.BPredUnit.condIncorrect       158154                       # Number of conditional branches incorrect
system.switch_cpus_1.BPredUnit.condPredicted      2138843                       # Number of conditional branches predicted
system.switch_cpus_1.BPredUnit.lookups        2292349                       # Number of BP lookups
system.switch_cpus_1.BPredUnit.usedRAS              0                       # Number of times the RAS was used to get a target.
system.switch_cpus_1.commit.COM:branches      1623752                       # Number of branches committed
system.switch_cpus_1.commit.COM:bw_lim_events        92390                       # number cycles where commit BW limit reached
system.switch_cpus_1.commit.COM:bw_limited            0                       # number of insts not committed due to BW limits
system.switch_cpus_1.commit.COM:committed_per_cycle::samples      7676265                       # Number of insts commited each cycle
system.switch_cpus_1.commit.COM:committed_per_cycle::mean     1.354631                       # Number of insts commited each cycle
system.switch_cpus_1.commit.COM:committed_per_cycle::stdev     1.780475                       # Number of insts commited each cycle
system.switch_cpus_1.commit.COM:committed_per_cycle::underflows            0      0.00%      0.00% # Number of insts commited each cycle
system.switch_cpus_1.commit.COM:committed_per_cycle::0      3094526     40.31%     40.31% # Number of insts commited each cycle
system.switch_cpus_1.commit.COM:committed_per_cycle::1      2847401     37.09%     77.41% # Number of insts commited each cycle
system.switch_cpus_1.commit.COM:committed_per_cycle::2       168221      2.19%     79.60% # Number of insts commited each cycle
system.switch_cpus_1.commit.COM:committed_per_cycle::3        75014      0.98%     80.58% # Number of insts commited each cycle
system.switch_cpus_1.commit.COM:committed_per_cycle::4       755623      9.84%     90.42% # Number of insts commited each cycle
system.switch_cpus_1.commit.COM:committed_per_cycle::5       633954      8.26%     98.68% # Number of insts commited each cycle
system.switch_cpus_1.commit.COM:committed_per_cycle::6         5711      0.07%     98.75% # Number of insts commited each cycle
system.switch_cpus_1.commit.COM:committed_per_cycle::7         3425      0.04%     98.80% # Number of insts commited each cycle
system.switch_cpus_1.commit.COM:committed_per_cycle::8        92390      1.20%    100.00% # Number of insts commited each cycle
system.switch_cpus_1.commit.COM:committed_per_cycle::overflows            0      0.00%    100.00% # Number of insts commited each cycle
system.switch_cpus_1.commit.COM:committed_per_cycle::min_value            0                       # Number of insts commited each cycle
system.switch_cpus_1.commit.COM:committed_per_cycle::max_value            8                       # Number of insts commited each cycle
system.switch_cpus_1.commit.COM:committed_per_cycle::total      7676265                       # Number of insts commited each cycle
system.switch_cpus_1.commit.COM:count        10398508                       # Number of instructions committed
system.switch_cpus_1.commit.COM:loads         1606582                       # Number of loads committed
system.switch_cpus_1.commit.COM:membars             0                       # Number of memory barriers committed
system.switch_cpus_1.commit.COM:refs          3004003                       # Number of memory references committed
system.switch_cpus_1.commit.COM:swp_count            0                       # Number of s/w prefetches committed
system.switch_cpus_1.commit.branchMispredicts       158150                       # The number of times a branch was mispredicted
system.switch_cpus_1.commit.commitCommittedInsts     10398508                       # The number of committed instructions
system.switch_cpus_1.commit.commitSquashedInsts      2736190                       # The number of squashed insts skipped by commit
system.switch_cpus_1.committedInsts          10000000                       # Number of Instructions Simulated
system.switch_cpus_1.committedInsts_total     10000000                       # Number of Instructions Simulated
system.switch_cpus_1.cpi                     0.813658                       # CPI: Cycles Per Instruction
system.switch_cpus_1.cpi_total               0.813658                       # CPI: Total CPI of All Threads
system.switch_cpus_1.decode.DECODE:BlockedCycles        29005                       # Number of cycles decode is blocked
system.switch_cpus_1.decode.DECODE:BranchMispred          245                       # Number of times decode detected a branch misprediction
system.switch_cpus_1.decode.DECODE:BranchResolved       149506                       # Number of times decode resolved a branch
system.switch_cpus_1.decode.DECODE:DecodedInsts     14324764                       # Number of instructions handled by decode
system.switch_cpus_1.decode.DECODE:IdleCycles      4430383                       # Number of cycles decode is idle
system.switch_cpus_1.decode.DECODE:RunCycles      3215421                       # Number of cycles decode is running
system.switch_cpus_1.decode.DECODE:SquashCycles       452901                       # Number of cycles decode is squashing
system.switch_cpus_1.decode.DECODE:SquashedInsts            8                       # Number of squashed instructions handled by decode
system.switch_cpus_1.decode.DECODE:UnblockCycles         1455                       # Number of cycles decode is unblocking
system.switch_cpus_1.dtb.data_accesses        3512036                       # DTB accesses
system.switch_cpus_1.dtb.data_acv                   0                       # DTB access violations
system.switch_cpus_1.dtb.data_hits            3505754                       # DTB hits
system.switch_cpus_1.dtb.data_misses             6282                       # DTB misses
system.switch_cpus_1.dtb.fetch_accesses             0                       # ITB accesses
system.switch_cpus_1.dtb.fetch_acv                  0                       # ITB acv
system.switch_cpus_1.dtb.fetch_hits                 0                       # ITB hits
system.switch_cpus_1.dtb.fetch_misses               0                       # ITB misses
system.switch_cpus_1.dtb.read_accesses        1892934                       # DTB read accesses
system.switch_cpus_1.dtb.read_acv                   0                       # DTB read access violations
system.switch_cpus_1.dtb.read_hits            1886908                       # DTB read hits
system.switch_cpus_1.dtb.read_misses             6026                       # DTB read misses
system.switch_cpus_1.dtb.write_accesses       1619102                       # DTB write accesses
system.switch_cpus_1.dtb.write_acv                  0                       # DTB write access violations
system.switch_cpus_1.dtb.write_hits           1618846                       # DTB write hits
system.switch_cpus_1.dtb.write_misses             256                       # DTB write misses
system.switch_cpus_1.fetch.Branches           2292349                       # Number of branches that fetch encountered
system.switch_cpus_1.fetch.CacheLines         2214186                       # Number of cache lines fetched
system.switch_cpus_1.fetch.Cycles             5471249                       # Number of cycles fetch has run and was not squashing or blocked
system.switch_cpus_1.fetch.IcacheSquashes        41810                       # Number of outstanding Icache misses that were squashed
system.switch_cpus_1.fetch.Insts             14566155                       # Number of instructions fetch has processed
system.switch_cpus_1.fetch.SquashCycles        173322                       # Number of cycles fetch has spent squashing
system.switch_cpus_1.fetch.branchRate        0.281734                       # Number of branch fetches per cycle
system.switch_cpus_1.fetch.icacheStallCycles      2214186                       # Number of cycles fetch is stalled on an Icache miss
system.switch_cpus_1.fetch.predictedBranches      2072215                       # Number of branches that fetch has predicted taken
system.switch_cpus_1.fetch.rate              1.790207                       # Number of inst fetches per cycle
system.switch_cpus_1.fetch.rateDist::samples      8129166                       # Number of instructions fetched each cycle (Total)
system.switch_cpus_1.fetch.rateDist::mean     1.791839                       # Number of instructions fetched each cycle (Total)
system.switch_cpus_1.fetch.rateDist::stdev     2.709856                       # Number of instructions fetched each cycle (Total)
system.switch_cpus_1.fetch.rateDist::underflows            0      0.00%      0.00% # Number of instructions fetched each cycle (Total)
system.switch_cpus_1.fetch.rateDist::0        4872103     59.93%     59.93% # Number of instructions fetched each cycle (Total)
system.switch_cpus_1.fetch.rateDist::1         790297      9.72%     69.66% # Number of instructions fetched each cycle (Total)
system.switch_cpus_1.fetch.rateDist::2         171370      2.11%     71.76% # Number of instructions fetched each cycle (Total)
system.switch_cpus_1.fetch.rateDist::3          51237      0.63%     72.39% # Number of instructions fetched each cycle (Total)
system.switch_cpus_1.fetch.rateDist::4         520014      6.40%     78.79% # Number of instructions fetched each cycle (Total)
system.switch_cpus_1.fetch.rateDist::5         673694      8.29%     87.08% # Number of instructions fetched each cycle (Total)
system.switch_cpus_1.fetch.rateDist::6          28912      0.36%     87.43% # Number of instructions fetched each cycle (Total)
system.switch_cpus_1.fetch.rateDist::7         514903      6.33%     93.77% # Number of instructions fetched each cycle (Total)
system.switch_cpus_1.fetch.rateDist::8         506636      6.23%    100.00% # Number of instructions fetched each cycle (Total)
system.switch_cpus_1.fetch.rateDist::overflows            0      0.00%    100.00% # Number of instructions fetched each cycle (Total)
system.switch_cpus_1.fetch.rateDist::min_value            0                       # Number of instructions fetched each cycle (Total)
system.switch_cpus_1.fetch.rateDist::max_value            8                       # Number of instructions fetched each cycle (Total)
system.switch_cpus_1.fetch.rateDist::total      8129166                       # Number of instructions fetched each cycle (Total)
system.switch_cpus_1.idleCycles                  7412                       # Total number of cycles that the CPU has spent unscheduled due to idling
system.switch_cpus_1.iew.EXEC:branches        1970012                       # Number of branches executed
system.switch_cpus_1.iew.EXEC:nop              858155                       # number of nop insts executed
system.switch_cpus_1.iew.EXEC:rate           1.448100                       # Inst execution rate
system.switch_cpus_1.iew.EXEC:refs            3512036                       # number of memory reference insts executed
system.switch_cpus_1.iew.EXEC:stores          1619102                       # Number of stores executed
system.switch_cpus_1.iew.EXEC:swp                   0                       # number of swp insts executed
system.switch_cpus_1.iew.WB:consumers         8651309                       # num instructions consuming a value
system.switch_cpus_1.iew.WB:count            11706740                       # cumulative count of insts written-back
system.switch_cpus_1.iew.WB:fanout           0.765442                       # average fanout of values written-back
system.switch_cpus_1.iew.WB:penalized               0                       # number of instrctions required to write to 'other' IQ
system.switch_cpus_1.iew.WB:penalized_rate            0                       # fraction of instructions written-back that wrote to 'other' IQ
system.switch_cpus_1.iew.WB:producers         6622071                       # num instructions producing a value
system.switch_cpus_1.iew.WB:rate             1.438779                       # insts written-back per cycle
system.switch_cpus_1.iew.WB:sent             11715322                       # cumulative count of insts sent to commit
system.switch_cpus_1.iew.branchMispredicts       171314                       # Number of branch mispredicts detected at execute
system.switch_cpus_1.iew.iewBlockCycles          1635                       # Number of cycles IEW is blocking
system.switch_cpus_1.iew.iewDispLoadInsts      1982721                       # Number of dispatched load instructions
system.switch_cpus_1.iew.iewDispNonSpecInsts            0                       # Number of dispatched non-speculative instructions
system.switch_cpus_1.iew.iewDispSquashedInsts       388166                       # Number of squashed instructions skipped by dispatch
system.switch_cpus_1.iew.iewDispStoreInsts      1694451                       # Number of dispatched store instructions
system.switch_cpus_1.iew.iewDispatchedInsts     13228784                       # Number of instructions dispatched to IQ
system.switch_cpus_1.iew.iewExecLoadInsts      1892934                       # Number of load instructions executed
system.switch_cpus_1.iew.iewExecSquashedInsts       154074                       # Number of squashed instructions skipped in execute
system.switch_cpus_1.iew.iewExecutedInsts     11782581                       # Number of executed instructions
system.switch_cpus_1.iew.iewIQFullEvents           75                       # Number of times the IQ has become full, causing a stall
system.switch_cpus_1.iew.iewIdleCycles              0                       # Number of cycles IEW is idle
system.switch_cpus_1.iew.iewLSQFullEvents            1                       # Number of times the LSQ has become full, causing a stall
system.switch_cpus_1.iew.iewSquashCycles       452901                       # Number of cycles IEW is squashing
system.switch_cpus_1.iew.iewUnblockCycles           89                       # Number of cycles IEW is unblocking
system.switch_cpus_1.iew.lsq.thread.0.blockedLoads            0                       # Number of blocked loads due to partial load-store forwarding
system.switch_cpus_1.iew.lsq.thread.0.cacheBlocked         1185                       # Number of times an access to memory failed due to the cache being blocked
system.switch_cpus_1.iew.lsq.thread.0.forwLoads       120669                       # Number of loads that had data forwarded from stores
system.switch_cpus_1.iew.lsq.thread.0.ignoredResponses        10852                       # Number of memory responses ignored because the instruction is squashed
system.switch_cpus_1.iew.lsq.thread.0.invAddrLoads            0                       # Number of loads ignored due to an invalid address
system.switch_cpus_1.iew.lsq.thread.0.invAddrSwpfs            0                       # Number of software prefetches ignored due to an invalid address
system.switch_cpus_1.iew.lsq.thread.0.memOrderViolation        11512                       # Number of memory ordering violations
system.switch_cpus_1.iew.lsq.thread.0.rescheduledLoads            0                       # Number of loads that were rescheduled
system.switch_cpus_1.iew.lsq.thread.0.squashedLoads       376138                       # Number of loads squashed
system.switch_cpus_1.iew.lsq.thread.0.squashedStores       297029                       # Number of stores squashed
system.switch_cpus_1.iew.memOrderViolationEvents        11512                       # Number of memory order violations
system.switch_cpus_1.iew.predictedNotTakenIncorrect        27611                       # Number of branches that were predicted not taken incorrectly
system.switch_cpus_1.iew.predictedTakenIncorrect       143703                       # Number of branches that were predicted taken incorrectly
system.switch_cpus_1.ipc                     1.229018                       # IPC: Instructions Per Cycle
system.switch_cpus_1.ipc_total               1.229018                       # IPC: Total IPC of All Threads
system.switch_cpus_1.iq.ISSUE:FU_type_0::No_OpClass            0      0.00%      0.00% # Type of FU issued
system.switch_cpus_1.iq.ISSUE:FU_type_0::IntAlu      8385997     70.25%     70.25% # Type of FU issued
system.switch_cpus_1.iq.ISSUE:FU_type_0::IntMult            0      0.00%     70.25% # Type of FU issued
system.switch_cpus_1.iq.ISSUE:FU_type_0::IntDiv            0      0.00%     70.25% # Type of FU issued
system.switch_cpus_1.iq.ISSUE:FU_type_0::FloatAdd            0      0.00%     70.25% # Type of FU issued
system.switch_cpus_1.iq.ISSUE:FU_type_0::FloatCmp            0      0.00%     70.25% # Type of FU issued
system.switch_cpus_1.iq.ISSUE:FU_type_0::FloatCvt            0      0.00%     70.25% # Type of FU issued
system.switch_cpus_1.iq.ISSUE:FU_type_0::FloatMult            0      0.00%     70.25% # Type of FU issued
system.switch_cpus_1.iq.ISSUE:FU_type_0::FloatDiv            0      0.00%     70.25% # Type of FU issued
system.switch_cpus_1.iq.ISSUE:FU_type_0::FloatSqrt            0      0.00%     70.25% # Type of FU issued
system.switch_cpus_1.iq.ISSUE:FU_type_0::MemRead      1907882     15.98%     86.24% # Type of FU issued
system.switch_cpus_1.iq.ISSUE:FU_type_0::MemWrite      1642777     13.76%    100.00% # Type of FU issued
system.switch_cpus_1.iq.ISSUE:FU_type_0::IprAccess            0      0.00%    100.00% # Type of FU issued
system.switch_cpus_1.iq.ISSUE:FU_type_0::InstPrefetch            0      0.00%    100.00% # Type of FU issued
system.switch_cpus_1.iq.ISSUE:FU_type_0::total     11936656                       # Type of FU issued
system.switch_cpus_1.iq.ISSUE:fu_busy_cnt         4664                       # FU busy when requested
system.switch_cpus_1.iq.ISSUE:fu_busy_rate     0.000391                       # FU busy rate (busy events/executed inst)
system.switch_cpus_1.iq.ISSUE:fu_full::No_OpClass            0      0.00%      0.00% # attempts to use FU when none available
system.switch_cpus_1.iq.ISSUE:fu_full::IntAlu         4572     98.03%     98.03% # attempts to use FU when none available
system.switch_cpus_1.iq.ISSUE:fu_full::IntMult            0      0.00%     98.03% # attempts to use FU when none available
system.switch_cpus_1.iq.ISSUE:fu_full::IntDiv            0      0.00%     98.03% # attempts to use FU when none available
system.switch_cpus_1.iq.ISSUE:fu_full::FloatAdd            0      0.00%     98.03% # attempts to use FU when none available
system.switch_cpus_1.iq.ISSUE:fu_full::FloatCmp            0      0.00%     98.03% # attempts to use FU when none available
system.switch_cpus_1.iq.ISSUE:fu_full::FloatCvt            0      0.00%     98.03% # attempts to use FU when none available
system.switch_cpus_1.iq.ISSUE:fu_full::FloatMult            0      0.00%     98.03% # attempts to use FU when none available
system.switch_cpus_1.iq.ISSUE:fu_full::FloatDiv            0      0.00%     98.03% # attempts to use FU when none available
system.switch_cpus_1.iq.ISSUE:fu_full::FloatSqrt            0      0.00%     98.03% # attempts to use FU when none available
system.switch_cpus_1.iq.ISSUE:fu_full::MemRead           75      1.61%     99.64% # attempts to use FU when none available
system.switch_cpus_1.iq.ISSUE:fu_full::MemWrite           17      0.36%    100.00% # attempts to use FU when none available
system.switch_cpus_1.iq.ISSUE:fu_full::IprAccess            0      0.00%    100.00% # attempts to use FU when none available
system.switch_cpus_1.iq.ISSUE:fu_full::InstPrefetch            0      0.00%    100.00% # attempts to use FU when none available
system.switch_cpus_1.iq.ISSUE:issued_per_cycle::samples      8129166                       # Number of insts issued each cycle
system.switch_cpus_1.iq.ISSUE:issued_per_cycle::mean     1.468374                       # Number of insts issued each cycle
system.switch_cpus_1.iq.ISSUE:issued_per_cycle::stdev     1.312841                       # Number of insts issued each cycle
system.switch_cpus_1.iq.ISSUE:issued_per_cycle::underflows            0      0.00%      0.00% # Number of insts issued each cycle
system.switch_cpus_1.iq.ISSUE:issued_per_cycle::0      2112692     25.99%     25.99% # Number of insts issued each cycle
system.switch_cpus_1.iq.ISSUE:issued_per_cycle::1      2515280     30.94%     56.93% # Number of insts issued each cycle
system.switch_cpus_1.iq.ISSUE:issued_per_cycle::2      2301448     28.31%     85.24% # Number of insts issued each cycle
system.switch_cpus_1.iq.ISSUE:issued_per_cycle::3       182479      2.24%     87.49% # Number of insts issued each cycle
system.switch_cpus_1.iq.ISSUE:issued_per_cycle::4       850672     10.46%     97.95% # Number of insts issued each cycle
system.switch_cpus_1.iq.ISSUE:issued_per_cycle::5       136252      1.68%     99.63% # Number of insts issued each cycle
system.switch_cpus_1.iq.ISSUE:issued_per_cycle::6        25433      0.31%     99.94% # Number of insts issued each cycle
system.switch_cpus_1.iq.ISSUE:issued_per_cycle::7         4783      0.06%    100.00% # Number of insts issued each cycle
system.switch_cpus_1.iq.ISSUE:issued_per_cycle::8          127      0.00%    100.00% # Number of insts issued each cycle
system.switch_cpus_1.iq.ISSUE:issued_per_cycle::overflows            0      0.00%    100.00% # Number of insts issued each cycle
system.switch_cpus_1.iq.ISSUE:issued_per_cycle::min_value            0                       # Number of insts issued each cycle
system.switch_cpus_1.iq.ISSUE:issued_per_cycle::max_value            8                       # Number of insts issued each cycle
system.switch_cpus_1.iq.ISSUE:issued_per_cycle::total      8129166                       # Number of insts issued each cycle
system.switch_cpus_1.iq.ISSUE:rate           1.467036                       # Inst issue rate
system.switch_cpus_1.iq.iqInstsAdded         12370629                       # Number of instructions added to the IQ (excludes non-spec)
system.switch_cpus_1.iq.iqInstsIssued        11936656                       # Number of instructions issued
system.switch_cpus_1.iq.iqSquashedInstsExamined      2093072                       # Number of squashed instructions iterated over during squash; mainly for profiling
system.switch_cpus_1.iq.iqSquashedInstsIssued         1113                       # Number of squashed instructions issued
system.switch_cpus_1.iq.iqSquashedOperandsExamined       802748                       # Number of squashed operands that are examined and possibly removed from graph
system.switch_cpus_1.itb.data_accesses              0                       # DTB accesses
system.switch_cpus_1.itb.data_acv                   0                       # DTB access violations
system.switch_cpus_1.itb.data_hits                  0                       # DTB hits
system.switch_cpus_1.itb.data_misses                0                       # DTB misses
system.switch_cpus_1.itb.fetch_accesses       2214187                       # ITB accesses
system.switch_cpus_1.itb.fetch_acv                  0                       # ITB acv
system.switch_cpus_1.itb.fetch_hits           2214186                       # ITB hits
system.switch_cpus_1.itb.fetch_misses               1                       # ITB misses
system.switch_cpus_1.itb.read_accesses              0                       # DTB read accesses
system.switch_cpus_1.itb.read_acv                   0                       # DTB read access violations
system.switch_cpus_1.itb.read_hits                  0                       # DTB read hits
system.switch_cpus_1.itb.read_misses                0                       # DTB read misses
system.switch_cpus_1.itb.write_accesses             0                       # DTB write accesses
system.switch_cpus_1.itb.write_acv                  0                       # DTB write access violations
system.switch_cpus_1.itb.write_hits                 0                       # DTB write hits
system.switch_cpus_1.itb.write_misses               0                       # DTB write misses
system.switch_cpus_1.memDep0.conflictingLoads       608036                       # Number of conflicting loads.
system.switch_cpus_1.memDep0.conflictingStores       427415                       # Number of conflicting stores.
system.switch_cpus_1.memDep0.insertedLoads      1982721                       # Number of loads inserted to the mem dependence unit.
system.switch_cpus_1.memDep0.insertedStores      1694451                       # Number of stores inserted to the mem dependence unit.
system.switch_cpus_1.numCycles                8136578                       # number of cpu cycles simulated
system.switch_cpus_1.rename.RENAME:BlockCycles        19540                       # Number of cycles rename is blocking
system.switch_cpus_1.rename.RENAME:CommittedMaps      6978824                       # Number of HB maps that are committed
system.switch_cpus_1.rename.RENAME:IQFullEvents          272                       # Number of times rename has blocked due to IQ full
system.switch_cpus_1.rename.RENAME:IdleCycles      4480001                       # Number of cycles rename is idle
system.switch_cpus_1.rename.RENAME:LSQFullEvents         8903                       # Number of times rename has blocked due to LSQ full
system.switch_cpus_1.rename.RENAME:ROBFullEvents          757                       # Number of times rename has blocked due to ROB full
system.switch_cpus_1.rename.RENAME:RenameLookups     18781788                       # Number of register rename lookups that rename has made
system.switch_cpus_1.rename.RENAME:RenamedInsts     14125804                       # Number of instructions processed by rename
system.switch_cpus_1.rename.RENAME:RenamedOperands      9230447                       # Number of destination operands rename has renamed
system.switch_cpus_1.rename.RENAME:RunCycles      3166934                       # Number of cycles rename is running
system.switch_cpus_1.rename.RENAME:SquashCycles       452901                       # Number of cycles rename is squashing
system.switch_cpus_1.rename.RENAME:UnblockCycles         9789                       # Number of cycles rename is unblocking
system.switch_cpus_1.rename.RENAME:UndoneMaps      2251610                       # Number of HB maps that are undone due to squashing
system.switch_cpus_1.rename.RENAME:serializeStallCycles            0                       # count of cycles rename stalled for serializing inst
system.switch_cpus_1.rename.RENAME:serializingInsts            0                       # count of serializing insts renamed
system.switch_cpus_1.rename.RENAME:skidInsts        18429                       # count of insts added to the skid buffer
system.switch_cpus_1.rename.RENAME:tempSerializingInsts            0                       # count of temporary serializing insts renamed
system.switch_cpus_1.timesIdled                   256                       # Number of times that the entire CPU went into an idle state and unscheduled itself

---------- End Simulation Statistics   ----------
